data/Network_05R-10/scenario_6/case.raw
 0,    100, 33, 0, 0, 60.0 / Header line 1
Header line 2
Header line 3
  1001,'',   115, 1, 1, 1, 1, 0.99933372, 12.084495, 1.1, 0.9, 1.1, 0.9
  1002,'',   115, 1, 1, 1, 1, 1.0470584, 15.018859, 1.1, 0.9, 1.1, 0.9
  1003,'',   115, 1, 1, 1, 1, 1.0171896, 29.358202, 1.1, 0.9, 1.1, 0.9
  1004,'',   230, 2, 1, 1, 1, 1.0205643, 29.727019, 1.1, 0.9, 1.1, 0.9
  1005,'',   115, 1, 1, 1, 1, 1.0087938, 34.199259, 1.1, 0.9, 1.1, 0.9
  1006,'',  13.8, 2, 1, 1, 1, 1.0052596, 37.0024, 1.1, 0.9, 1.1, 0.9
  1007,'',   115, 1, 1, 1, 1, 1.0502964, 14.691512, 1.1, 0.9, 1.1, 0.9
  1008,'',   115, 1, 1, 1, 1, 1.0204666, 26.428001, 1.1, 0.9, 1.1, 0.9
  1009,'',  13.8, 2, 1, 1, 1, 1.0101195, 27.658419, 1.1, 0.9, 1.1, 0.9
  1010,'',   115, 1, 1, 1, 1, 1.0506504, 15.939394, 1.1, 0.9, 1.1, 0.9
  1011,'',    22, 2, 1, 1, 1, 1.0506504, 15.939394, 1.1, 0.9, 1.1, 0.9
  1012,'',   115, 1, 1, 1, 1, 1.0223057, 13.057016, 1.1, 0.9, 1.1, 0.9
  1013,'',   115, 1, 1, 1, 1, 1.0127441, 16.800054, 1.1, 0.9, 1.1, 0.9
  1014,'',   115, 1, 1, 1, 1, 1.0130813, 20.324143, 1.1, 0.9, 1.1, 0.9
  1015,'',   115, 1, 1, 1, 1, 1.0543065, 14.912797, 1.1, 0.9, 1.1, 0.9
  1016,'',   115, 1, 1, 1, 1, 1.015, 33.015955, 1.1, 0.9, 1.1, 0.9
  1017,'',   115, 1, 1, 1, 1, 1.0011714, 14.547101, 1.1, 0.9, 1.1, 0.9
  1018,'',   115, 1, 1, 1, 1, 1.0061908, 16.23071, 1.1, 0.9, 1.1, 0.9
  1019,'',   115, 1, 1, 1, 1, 1.015, 13.645666, 1.1, 0.9, 1.1, 0.9
  1020,'',   115, 1, 1, 1, 1, 1.0178819, 33.006066, 1.1, 0.9, 1.1, 0.9
  1021,'',  13.8, 2, 1, 1, 1, 1, 41.661174, 1.1, 0.9, 1.1, 0.9
  1022,'',   115, 1, 1, 1, 1, 1.0183501, 29.932249, 1.1, 0.9, 1.1, 0.9
  1023,'',  13.8, 2, 1, 1, 1, 1.01, 32.964248, 1.1, 0.9, 1.1, 0.9
  1024,'',   115, 1, 1, 1, 1, 1.0049045, 17.571074, 1.1, 0.9, 1.1, 0.9
  1025,'',   115, 1, 1, 1, 1, 1.0195113, 35.008161, 1.1, 0.9, 1.1, 0.9
  1026,'',  13.8, 2, 1, 1, 1, 1.03, 47.032882, 1.1, 0.9, 1.1, 0.9
  1027,'',   115, 1, 1, 1, 1, 1, 14.835329, 1.1, 0.9, 1.1, 0.9
  1028,'',   115, 1, 1, 1, 1, 1.0198343, 30.030678, 1.1, 0.9, 1.1, 0.9
  1029,'',   115, 1, 1, 1, 1, 1.015, 15.328258, 1.1, 0.9, 1.1, 0.9
  1030,'',   115, 1, 1, 1, 1, 1.0251078, 20.005632, 1.1, 0.9, 1.1, 0.9
  1031,'',   115, 1, 1, 1, 1, 1.0328191, 15.230398, 1.1, 0.9, 1.1, 0.9
  1032,'',   115, 1, 1, 1, 1, 0.99850194, 22.528948, 1.1, 0.9, 1.1, 0.9
  1033,'',   230, 2, 1, 1, 1, 1.0155019, 16.526342, 1.1, 0.9, 1.1, 0.9
  1034,'',   115, 1, 1, 1, 1, 1.0059503, 35.481482, 1.1, 0.9, 1.1, 0.9
  1035,'',  13.8, 2, 1, 1, 1, 1, 39.778921, 1.1, 0.9, 1.1, 0.9
  1036,'',   115, 1, 1, 1, 1, 0.99486709, 26.234725, 1.1, 0.9, 1.1, 0.9
  1037,'',   115, 1, 1, 1, 1, 0.9981896, 13.143404, 1.1, 0.9, 1.1, 0.9
  1038,'',   115, 1, 1, 1, 1, 1.0134729, 25.363692, 1.1, 0.9, 1.1, 0.9
  1039,'',    22, 2, 1, 1, 1, 1, 27.130577, 1.1, 0.9, 1.1, 0.9
  1040,'',   115, 1, 1, 1, 1, 1.0057867, 16.363528, 1.1, 0.9, 1.1, 0.9
  1041,'',   115, 1, 1, 1, 1, 1.0043579, 34.231356, 1.1, 0.9, 1.1, 0.9
  1042,'',  13.8, 2, 1, 1, 1, 1.0043579, 34.231356, 1.1, 0.9, 1.1, 0.9
  1043,'',  13.8, 2, 1, 1, 1, 1.0191694, 38.427025, 1.1, 0.9, 1.1, 0.9
  1044,'',   115, 1, 1, 1, 1, 1.0133972, 20.761413, 1.1, 0.9, 1.1, 0.9
  1045,'',   115, 1, 1, 1, 1, 0.99543512, 12.397705, 1.1, 0.9, 1.1, 0.9
  1046,'',   115, 1, 1, 1, 1, 1.0254626, 18.114046, 1.1, 0.9, 1.1, 0.9
  1047,'',   115, 1, 1, 1, 1, 1.0100252, 18.09225, 1.1, 0.9, 1.1, 0.9
  1048,'',    18, 2, 1, 1, 1, 1.0100252, 18.09225, 1.1, 0.9, 1.1, 0.9
  1049,'',    18, 2, 1, 1, 1, 1.0100252, 18.09225, 1.1, 0.9, 1.1, 0.9
  1050,'',    18, 2, 1, 1, 1, 1.0023328, 19.630966, 1.1, 0.9, 1.1, 0.9
  1051,'',    18, 2, 1, 1, 1, 1, 20.091108, 1.1, 0.9, 1.1, 0.9
  1052,'',    18, 2, 1, 1, 1, 1.0042669, 19.37258, 1.1, 0.9, 1.1, 0.9
  1053,'',   230, 2, 1, 1, 1, 1.0195069, 16.798947, 1.1, 0.9, 1.1, 0.9
  1054,'',   115, 1, 1, 1, 1, 1.0021791, 20.904663, 1.1, 0.9, 1.1, 0.9
  1055,'',   115, 1, 1, 1, 1, 1.0099877, 28.150131, 1.1, 0.9, 1.1, 0.9
  1056,'',   115, 1, 1, 1, 1, 1.015, 20.093698, 1.1, 0.9, 1.1, 0.9
  1057,'',    18, 2, 1, 1, 1, 1.015, 20.093698, 1.1, 0.9, 1.1, 0.9
  1058,'',   115, 1, 1, 1, 1, 1.0260591, 25.307239, 1.1, 0.9, 1.1, 0.9
  1059,'',    22, 2, 1, 1, 1, 1.0260591, 25.307239, 1.1, 0.9, 1.1, 0.9
  1060,'',    22, 2, 1, 1, 1, 1.0260591, 25.307239, 1.1, 0.9, 1.1, 0.9
  1061,'',   115, 1, 1, 1, 1, 1.0079423, 33.548492, 1.1, 0.9, 1.1, 0.9
  1062,'',  13.8, 2, 1, 1, 1, 1.0079423, 33.548492, 1.1, 0.9, 1.1, 0.9
  1063,'',  13.8, 2, 1, 1, 1, 1.0079423, 33.548492, 1.1, 0.9, 1.1, 0.9
  1064,'',   115, 1, 1, 1, 1, 0.9935482, 11.594283, 1.1, 0.9, 1.1, 0.9
  1065,'',   115, 1, 1, 1, 1, 1.0027777, 33.665849, 1.1, 0.9, 1.1, 0.9
  1066,'',  13.8, 2, 1, 1, 1, 1, 43.333907, 1.1, 0.9, 1.1, 0.9
  1067,'',   115, 1, 1, 1, 1, 1.0023171, 34.119259, 1.1, 0.9, 1.1, 0.9
  1068,'',   115, 1, 1, 1, 1, 0.99311467, 29.965567, 1.1, 0.9, 1.1, 0.9
  1069,'',   115, 1, 1, 1, 1, 1.0268124, 27.163685, 1.1, 0.9, 1.1, 0.9
  1070,'',  13.8, 2, 1, 1, 1, 1.04, 32.852607, 1.1, 0.9, 1.1, 0.9
  1071,'',   115, 1, 1, 1, 1, 1.0103001, 13.063417, 1.1, 0.9, 1.1, 0.9
  1072,'',    18, 2, 1, 1, 1, 1.01, 15.867095, 1.1, 0.9, 1.1, 0.9
  1073,'',    18, 2, 1, 1, 1, 1.01, 17.727413, 1.1, 0.9, 1.1, 0.9
  1074,'',    18, 2, 1, 1, 1, 1.01, 17.140119, 1.1, 0.9, 1.1, 0.9
  1075,'',    18, 2, 1, 1, 1, 1.01, 16.324803, 1.1, 0.9, 1.1, 0.9
  1076,'',    18, 2, 1, 1, 1, 1.0103001, 13.063417, 1.1, 0.9, 1.1, 0.9
  1077,'',    18, 2, 1, 1, 1, 1.0103001, 13.063417, 1.1, 0.9, 1.1, 0.9
  1078,'',    18, 2, 1, 1, 1, 1.01, 16.16655, 1.1, 0.9, 1.1, 0.9
  1079,'',   500, 2, 1, 1, 1, 1.0500903, 4.9512551, 1.1, 0.9, 1.1, 0.9
  1080,'',    18, 2, 1, 1, 1, 1.01, 16.355493, 1.1, 0.9, 1.1, 0.9
  1081,'',   230, 2, 1, 1, 1, 1.0213703, 16.353942, 1.1, 0.9, 1.1, 0.9
  1082,'',   115, 2, 1, 1, 1, 1.0199633, 28.248667, 1.1, 0.9, 1.1, 0.9
  1083,'',   115, 1, 1, 1, 1, 1.015, 23.275576, 1.1, 0.9, 1.1, 0.9
  1084,'',   115, 2, 1, 1, 1, 1.0207793, 29.813527, 1.1, 0.9, 1.1, 0.9
  1085,'',   115, 1, 1, 1, 1, 1.0125925, 17.891406, 1.1, 0.9, 1.1, 0.9
  1086,'',   115, 1, 1, 1, 1, 1.015, 15.956952, 1.1, 0.9, 1.1, 0.9
  1087,'',   115, 1, 1, 1, 1, 1.0283851, 21.649257, 1.1, 0.9, 1.1, 0.9
  1088,'',   115, 2, 1, 1, 1, 1, 30.597591, 1.1, 0.9, 1.1, 0.9
  1089,'',   115, 1, 1, 1, 1, 0.99121792, 24.361642, 1.1, 0.9, 1.1, 0.9
  1090,'',   115, 2, 1, 1, 1, 1.02, 20.332965, 1.1, 0.9, 1.1, 0.9
  1091,'',   161, 1, 1, 1, 1, 1.026264, 22.165761, 1.1, 0.9, 1.1, 0.9
  2001,'',   161, 1, 1, 1, 1, 1.0279925, -12.335477, 1.1, 0.9, 1.1, 0.9
  2002,'',   500, 1, 1, 1, 1, 1.0299091, -12.095676, 1.1, 0.9, 1.1, 0.9
  2003,'',   161, 1, 1, 1, 1, 1.0256147, -13.214982, 1.1, 0.9, 1.1, 0.9
  2004,'',  13.8, 2, 1, 1, 1, 1.0299091, -12.095676, 1.1, 0.9, 1.1, 0.9
  2005,'',  13.8, 2, 1, 1, 1, 1.0299091, -12.095676, 1.1, 0.9, 1.1, 0.9
  2006,'',  13.8, 2, 1, 1, 1, 1.0299091, -12.095676, 1.1, 0.9, 1.1, 0.9
  2007,'',   161, 1, 1, 1, 1, 1.0268406, -12.118076, 1.1, 0.9, 1.1, 0.9
  2008,'',   161, 1, 1, 1, 1, 1.0285117, 22.34325, 1.1, 0.9, 1.1, 0.9
  2009,'',   161, 1, 1, 1, 1, 1.0266041, 4.4847973, 1.1, 0.9, 1.1, 0.9
  2010,'',   161, 1, 1, 1, 1, 1.0279184, 16.705566, 1.1, 0.9, 1.1, 0.9
  2011,'',   500, 1, 1, 1, 1, 1.0413515, 21.486493, 1.1, 0.9, 1.1, 0.9
  2012,'',   161, 1, 1, 1, 1, 1.0287514, 24.730791, 1.1, 0.9, 1.1, 0.9
  2013,'',    18, 2, 1, 1, 1, 1.0336199, 24.582582, 1.1, 0.9, 1.1, 0.9
  2014,'',   161, 1, 1, 1, 1, 1.0283466, 21.644595, 1.1, 0.9, 1.1, 0.9
  2015,'',   161, 1, 1, 1, 1, 1.0115809, -9.5848396, 1.1, 0.9, 1.1, 0.9
  2016,'',   161, 1, 1, 1, 1, 1.008605, -15.850381, 1.1, 0.9, 1.1, 0.9
  2017,'',   500, 1, 1, 1, 1, 1.0259398, 20.602394, 1.1, 0.9, 1.1, 0.9
  2018,'',   161, 1, 1, 1, 1, 1.0235165, 21.993002, 1.1, 0.9, 1.1, 0.9
  2019,'',    20, 2, 1, 1, 1, 1.0259398, 20.602394, 1.1, 0.9, 1.1, 0.9
  2020,'',   161, 1, 1, 1, 1, 1.0187384, 3.2174257, 1.1, 0.9, 1.1, 0.9
  2021,'',   500, 1, 1, 1, 1, 1.0307424, -10.745942, 1.1, 0.9, 1.1, 0.9
  2022,'',   161, 1, 1, 1, 1, 1.0309248, -11.641748, 1.1, 0.9, 1.1, 0.9
  2023,'',  13.8, 2, 1, 1, 1, 1.027821, -10.278185, 1.1, 0.9, 1.1, 0.9
  2024,'',  13.8, 2, 1, 1, 1, 1.0265252, -10.079253, 1.1, 0.9, 1.1, 0.9
  2025,'',   161, 1, 1, 1, 1, 1.0189465, 3.8185324, 1.1, 0.9, 1.1, 0.9
  2026,'',   161, 1, 1, 1, 1, 1.0290095, 23.355943, 1.1, 0.9, 1.1, 0.9
  2027,'',   161, 1, 1, 1, 1, 1.0296443, -12.519232, 1.1, 0.9, 1.1, 0.9
  2028,'',   161, 1, 1, 1, 1, 1.0163751, 1.9726864, 1.1, 0.9, 1.1, 0.9
  2029,'',   161, 1, 1, 1, 1, 1.0305243, 21.715923, 1.1, 0.9, 1.1, 0.9
  2030,'',   161, 1, 1, 1, 1, 1.0188147, -13.768217, 1.1, 0.9, 1.1, 0.9
  2031,'',   161, 1, 1, 1, 1, 1.0300872, 22.396598, 1.1, 0.9, 1.1, 0.9
  2032,'',   161, 1, 1, 1, 1, 1.0278937, -11.865395, 1.1, 0.9, 1.1, 0.9
  2033,'',   161, 1, 1, 1, 1, 1.0197835, -14.170071, 1.1, 0.9, 1.1, 0.9
  2034,'',   161, 1, 1, 1, 1, 1.0093337, -15.698879, 1.1, 0.9, 1.1, 0.9
  2035,'',   161, 1, 1, 1, 1, 1.0280867, 21.246595, 1.1, 0.9, 1.1, 0.9
  2036,'',   161, 1, 1, 1, 1, 1.0200295, 3.6760748, 1.1, 0.9, 1.1, 0.9
  2037,'',   161, 1, 1, 1, 1, 1.0128133, -9.8362811, 1.1, 0.9, 1.1, 0.9
  2038,'',   161, 1, 1, 1, 1, 1.0246331, -13.442662, 1.1, 0.9, 1.1, 0.9
  2039,'',   161, 1, 1, 1, 1, 1.0122028, -8.108059, 1.1, 0.9, 1.1, 0.9
  2040,'',   161, 1, 1, 1, 1, 1.0316905, -12.021471, 1.1, 0.9, 1.1, 0.9
  2041,'',   161, 1, 1, 1, 1, 1.0313781, 27.619831, 1.1, 0.9, 1.1, 0.9
  2042,'',    18, 2, 1, 1, 1, 1.0224407, 31.028636, 1.1, 0.9, 1.1, 0.9
  2043,'',   161, 1, 1, 1, 1, 1.009007, -15.777429, 1.1, 0.9, 1.1, 0.9
  2044,'',   161, 1, 1, 1, 1, 1.0154724, -12.202778, 1.1, 0.9, 1.1, 0.9
  2045,'',   161, 1, 1, 1, 1, 1.0179676, 2.9330507, 1.1, 0.9, 1.1, 0.9
  2046,'',   161, 1, 1, 1, 1, 1.0098044, -15.580484, 1.1, 0.9, 1.1, 0.9
  2047,'',   161, 1, 1, 1, 1, 1.0227505, -13.654377, 1.1, 0.9, 1.1, 0.9
  2048,'',   161, 1, 1, 1, 1, 1.0304917, 21.086605, 1.1, 0.9, 1.1, 0.9
  2049,'',   161, 1, 1, 1, 1, 1.0207585, 10.203434, 1.1, 0.9, 1.1, 0.9
  2050,'',   161, 1, 1, 1, 1, 1.0271522, -13.551431, 1.1, 0.9, 1.1, 0.9
  2051,'',   161, 1, 1, 1, 1, 1.011312, -2.9293118, 1.1, 0.9, 1.1, 0.9
  2052,'',   161, 1, 1, 1, 1, 1.0271127, 23.165516, 1.1, 0.9, 1.1, 0.9
  2053,'',   161, 1, 1, 1, 1, 1.017352, -8.2373381, 1.1, 0.9, 1.1, 0.9
  2054,'',   500, 1, 1, 1, 1, 1.0217424, 3.9987634, 1.1, 0.9, 1.1, 0.9
  2055,'',   161, 1, 1, 1, 1, 1.0203846, 3.7109181, 1.1, 0.9, 1.1, 0.9
  2056,'',    18, 2, 1, 1, 1, 1.0217424, 3.9987634, 1.1, 0.9, 1.1, 0.9
  2057,'',    18, 2, 1, 1, 1, 1.0272653, 5.5663447, 1.1, 0.9, 1.1, 0.9
  2058,'',   161, 1, 1, 1, 1, 1.0327474, 28.19099, 1.1, 0.9, 1.1, 0.9
  2059,'',  13.8, 2, 1, 1, 1, 1.0226087, 32.507101, 1.1, 0.9, 1.1, 0.9
  2060,'',   161, 1, 1, 1, 1, 1.0262832, -12.961821, 1.1, 0.9, 1.1, 0.9
  2061,'',   161, 1, 1, 1, 1, 1.0231956, 14.679335, 1.1, 0.9, 1.1, 0.9
  2062,'',    18, 2, 1, 1, 1, 1.02, 17.308528, 1.1, 0.9, 1.1, 0.9
  2063,'',   161, 1, 1, 1, 1, 1.0111468, -15.317976, 1.1, 0.9, 1.1, 0.9
  2064,'',   161, 1, 1, 1, 1, 1.02851, -12.312907, 1.1, 0.9, 1.1, 0.9
  2065,'',   161, 1, 1, 1, 1, 1.0111449, -11.394795, 1.1, 0.9, 1.1, 0.9
  2066,'',   161, 1, 1, 1, 1, 1.0256437, 23.416229, 1.1, 0.9, 1.1, 0.9
  2067,'',   161, 1, 1, 1, 1, 1.0184938, 4.1324615, 1.1, 0.9, 1.1, 0.9
  2068,'',   161, 1, 1, 1, 1, 1.0232245, 6.3686611, 1.1, 0.9, 1.1, 0.9
  2069,'',   161, 1, 1, 1, 1, 1.015, -15.175361, 1.1, 0.9, 1.1, 0.9
  2070,'',   161, 1, 1, 1, 1, 1.0249192, 6.8017768, 1.1, 0.9, 1.1, 0.9
  2071,'',    18, 2, 1, 1, 1, 1.0190136, 11.406107, 1.1, 0.9, 1.1, 0.9
  2072,'',   161, 1, 1, 1, 1, 1.0188228, -14.284776, 1.1, 0.9, 1.1, 0.9
  2073,'',   161, 1, 1, 1, 1, 1.0236178, 25.25226, 1.1, 0.9, 1.1, 0.9
  2074,'',   115, 1, 1, 1, 1, 1.0127363, 27.166337, 1.1, 0.9, 1.1, 0.9
  2075,'',   115, 1, 1, 1, 1, 1.0127363, 27.166337, 1.1, 0.9, 1.1, 0.9
  2076,'',    24, 2, 1, 1, 1, 1.028913, 26.277331, 1.1, 0.9, 1.1, 0.9
  2077,'',   161, 1, 1, 1, 1, 1.0160614, -7.9926987, 1.1, 0.9, 1.1, 0.9
  2078,'',  13.8, 2, 1, 1, 1, 1.02, -5.507296, 1.1, 0.9, 1.1, 0.9
  2079,'',   161, 1, 1, 1, 1, 1.0303933, 18.407033, 1.1, 0.9, 1.1, 0.9
  2080,'',   161, 1, 1, 1, 1, 1.0121943, -5.3958529, 1.1, 0.9, 1.1, 0.9
  2081,'',   161, 1, 1, 1, 1, 1.0225829, -13.82229, 1.1, 0.9, 1.1, 0.9
  2082,'',   161, 1, 1, 1, 1, 1.0208103, 3.7616041, 1.1, 0.9, 1.1, 0.9
  2083,'',    20, 2, 1, 1, 1, 1.0271832, 4.2256972, 1.1, 0.9, 1.1, 0.9
  2084,'',    20, 2, 1, 1, 1, 1.0208103, 3.7616041, 1.1, 0.9, 1.1, 0.9
  2085,'',    20, 2, 1, 1, 1, 1.0208103, 3.7616041, 1.1, 0.9, 1.1, 0.9
  2086,'',   161, 1, 1, 1, 1, 1.0123023, -7.0797148, 1.1, 0.9, 1.1, 0.9
  2087,'',   161, 1, 1, 1, 1, 1.0274089, 23.764388, 1.1, 0.9, 1.1, 0.9
  2088,'',   161, 1, 1, 1, 1, 1.023969, 6.685535, 1.1, 0.9, 1.1, 0.9
  2089,'',    24, 2, 1, 1, 1, 1.0187249, 10.547866, 1.1, 0.9, 1.1, 0.9
  2090,'',   161, 1, 1, 1, 1, 1.031377, -12.750097, 1.1, 0.9, 1.1, 0.9
  2091,'',   161, 1, 1, 1, 1, 1.0288217, 18.68695, 1.1, 0.9, 1.1, 0.9
  2092,'',   161, 1, 1, 1, 1, 1.0165102, -14.531341, 1.1, 0.9, 1.1, 0.9
  2093,'',   161, 1, 1, 1, 1, 1.0265581, 23.441817, 1.1, 0.9, 1.1, 0.9
  2094,'',  13.8, 2, 1, 1, 1, 1.0265581, 23.441817, 1.1, 0.9, 1.1, 0.9
  2095,'',  13.8, 2, 1, 1, 1, 1.0265581, 23.441817, 1.1, 0.9, 1.1, 0.9
  2096,'',   500, 1, 1, 1, 1, 1, 24.655739, 1.1, 0.9, 1.1, 0.9
  2097,'',   230, 1, 1, 1, 1, 1.0030803, 24.948178, 1.1, 0.9, 1.1, 0.9
  2098,'',   161, 1, 1, 1, 1, 1.0239629, 22.628782, 1.1, 0.9, 1.1, 0.9
  2099,'',    18, 2, 1, 1, 1, 1.0007532, 24.852456, 1.1, 0.9, 1.1, 0.9
  2100,'',    18, 2, 1, 1, 1, 1.0125581, 28.188668, 1.1, 0.9, 1.1, 0.9
  2101,'',   500, 1, 1, 1, 1, 1.0288732, -12.307468, 1.1, 0.9, 1.1, 0.9
  2102,'',   161, 1, 1, 1, 1, 1.0253099, -12.802769, 1.1, 0.9, 1.1, 0.9
  2103,'',    20, 2, 1, 1, 1, 1.0288732, -12.307468, 1.1, 0.9, 1.1, 0.9
  2104,'',    20, 2, 1, 1, 1, 1.0288732, -12.307468, 1.1, 0.9, 1.1, 0.9
  2105,'',    20, 2, 1, 1, 1, 1.0288732, -12.307468, 1.1, 0.9, 1.1, 0.9
  2106,'',   161, 1, 1, 1, 1, 1.0173174, -14.359314, 1.1, 0.9, 1.1, 0.9
  2107,'',   161, 1, 1, 1, 1, 1.0224674, -13.14298, 1.1, 0.9, 1.1, 0.9
  2108,'',   161, 1, 1, 1, 1, 1.0281953, 5.2167497, 1.1, 0.9, 1.1, 0.9
  2109,'',   161, 1, 1, 1, 1, 1.0206735, 3.2852307, 1.1, 0.9, 1.1, 0.9
...
0 / END OF BUS DATA, BEGIN LOAD DATA
1001, '1', 1, 1, 1, 14.694, 4.163, 0, 0, 0, 0, 1, 1, 0
1002, '1', 1, 1, 1, 10.899, 3.088, 0, 0, 0, 0, 1, 1, 0
1007, '1', 1, 1, 1, 4.955, 1.404, 0, 0, 0, 0, 1, 1, 0
1012, '1', 1, 1, 1, 2.111, 0.598, 0, 0, 0, 0, 1, 1, 0
1013, '1', 1, 1, 1, 20.665, 5.855, 0, 0, 0, 0, 1, 1, 0
1014, '1', 1, 1, 1, 1.57, 0.445, 0, 0, 0, 0, 1, 1, 0
1015, '1', 1, 1, 1, 5.309, 1.504, 0, 0, 0, 0, 1, 1, 0
1016, '1', 1, 1, 1, 2.043, 0.579, 0, 0, 0, 0, 1, 1, 0
1017, '1', 1, 1, 1, 12.971, 3.675, 0, 0, 0, 0, 1, 1, 0
1018, '1', 1, 1, 1, 0.049, 0.014, 0, 0, 0, 0, 1, 1, 0
1019, '1', 1, 1, 1, 43.681, 12.376, 0, 0, 0, 0, 1, 1, 0
1024, '1', 1, 1, 1, 44.574, 12.629, 0, 0, 0, 0, 1, 1, 0
1027, '1', 1, 1, 1, 71.564, 20.277, 0, 0, 0, 0, 1, 1, 0
1028, '1', 1, 1, 1, 7.081, 2.005, 0, 0, 0, 0, 1, 1, 0
1029, '1', 1, 1, 1, 58.818, 16.665, 0, 0, 0, 0, 1, 1, 0
1030, '1', 1, 1, 1, 17.413, 4.934, 0, 0, 0, 0, 1, 1, 0
1031, '1', 1, 1, 1, 6.538, 1.852, 0, 0, 0, 0, 1, 1, 0
1036, '1', 1, 1, 1, 9.613, 2.724, 0, 0, 0, 0, 1, 1, 0
1037, '1', 1, 1, 1, 72.29, 20.482, 0, 0, 0, 0, 1, 1, 0
1040, '1', 1, 1, 1, 31.365, 8.887, 0, 0, 0, 0, 1, 1, 0
1044, '1', 1, 1, 1, 10.381, 2.941, 0, 0, 0, 0, 1, 1, 0
1045, '1', 1, 1, 1, 69.691, 19.746, 0, 0, 0, 0, 1, 1, 0
1046, '1', 1, 1, 1, 7.838, 2.221, 0, 0, 0, 0, 1, 1, 0
1054, '1', 1, 1, 1, 10.598, 3.003, 0, 0, 0, 0, 1, 1, 0
1055, '1', 1, 1, 1, 2.813, 0.797, 0, 0, 0, 0, 1, 1, 0
1058, '1', 1, 1, 1, 9.514, 2.696, 0, 0, 0, 0, 1, 1, 0
1064, '1', 1, 1, 1, 87.507, 24.793, 0, 0, 0, 0, 1, 1, 0
1067, '1', 1, 1, 1, 71.804, 20.345, 0, 0, 0, 0, 1, 1, 0
1068, '1', 1, 1, 1, 42.003, 11.901, 0, 0, 0, 0, 1, 1, 0
1071, '1', 1, 1, 1, 64.672, 18.324, 0, 0, 0, 0, 1, 1, 0
1083, '1', 1, 1, 1, 28.244, 8.003, 0, 0, 0, 0, 1, 1, 0
1085, '1', 1, 1, 1, 15.059, 4.266, 0, 0, 0, 0, 1, 1, 0
1086, '1', 1, 1, 1, 28.051, 7.948, 0, 0, 0, 0, 1, 1, 0
1087, '1', 1, 1, 1, 0.643, 0.182, 0, 0, 0, 0, 1, 1, 0
1089, '1', 1, 1, 1, 28.711, 8.134, 0, 0, 0, 0, 1, 1, 0
1091, '1', 1, 1, 1, 8.217, 2.328, 0, 0, 0, 0, 1, 1, 0
2001, '1', 1, 1, 1, 27.731, 7.857, 0, 0, 0, 0, 1, 1, 0
2007, '1', 1, 1, 1, 5.471, 1.55, 0, 0, 0, 0, 1, 1, 0
2008, '1', 1, 1, 1, 4.623, 1.31, 0, 0, 0, 0, 1, 1, 0
2009, '1', 1, 1, 1, 22.442, 6.359, 0, 0, 0, 0, 1, 1, 0
2010, '1', 1, 1, 1, 32.576, 9.23, 0, 0, 0, 0, 1, 1, 0
2014, '1', 1, 1, 1, 14.582, 4.132, 0, 0, 0, 0, 1, 1, 0
2015, '1', 1, 1, 1, 2.687, 0.761, 0, 0, 0, 0, 1, 1, 0
2016, '1', 1, 1, 1, 39.722, 11.255, 0, 0, 0, 0, 1, 1, 0
2020, '1', 1, 1, 1, 27.511, 7.795, 0, 0, 0, 0, 1, 1, 0
2022, '1', 1, 1, 1, 6.632, 1.879, 0, 0, 0, 0, 1, 1, 0
2025, '1', 1, 1, 1, 22.719, 6.437, 0, 0, 0, 0, 1, 1, 0
2026, '1', 1, 1, 1, 10.649, 3.017, 0, 0, 0, 0, 1, 1, 0
2027, '1', 1, 1, 1, 2.039, 0.578, 0, 0, 0, 0, 1, 1, 0
2028, '1', 1, 1, 1, 8.165, 2.313, 0, 0, 0, 0, 1, 1, 0
2029, '1', 1, 1, 1, 1.836, 0.52, 0, 0, 0, 0, 1, 1, 0
2030, '1', 1, 1, 1, 27.036, 7.661, 0, 0, 0, 0, 1, 1, 0
2031, '1', 1, 1, 1, 3.306, 0.937, 0, 0, 0, 0, 1, 1, 0
2032, '1', 1, 1, 1, 1.923, 0.545, 0, 0, 0, 0, 1, 1, 0
2033, '1', 1, 1, 1, 7.783, 2.206, 0, 0, 0, 0, 1, 1, 0
2034, '1', 1, 1, 1, 3.062, 0.868, 0, 0, 0, 0, 1, 1, 0
2035, '1', 1, 1, 1, 2.685, 0.761, 0, 0, 0, 0, 1, 1, 0
2036, '1', 1, 1, 1, 23.848, 6.757, 0, 0, 0, 0, 1, 1, 0
2037, '1', 1, 1, 1, 2.008, 0.569, 0, 0, 0, 0, 1, 1, 0
2038, '1', 1, 1, 1, 1.493, 0.423, 0, 0, 0, 0, 1, 1, 0
2039, '1', 1, 1, 1, 3.188, 0.903, 0, 0, 0, 0, 1, 1, 0
2040, '1', 1, 1, 1, 9.12, 2.584, 0, 0, 0, 0, 1, 1, 0
2043, '1', 1, 1, 1, 2.429, 0.688, 0, 0, 0, 0, 1, 1, 0
2044, '1', 1, 1, 1, 15.716, 4.453, 0, 0, 0, 0, 1, 1, 0
2045, '1', 1, 1, 1, 12.963, 3.673, 0, 0, 0, 0, 1, 1, 0
2046, '1', 1, 1, 1, 12.693, 3.596, 0, 0, 0, 0, 1, 1, 0
2047, '1', 1, 1, 1, 8.576, 2.43, 0, 0, 0, 0, 1, 1, 0
2048, '1', 1, 1, 1, 3.68, 1.043, 0, 0, 0, 0, 1, 1, 0
2049, '1', 1, 1, 1, 6.636, 1.88, 0, 0, 0, 0, 1, 1, 0
2050, '1', 1, 1, 1, 2.097, 0.594, 0, 0, 0, 0, 1, 1, 0
2051, '1', 1, 1, 1, 10.236, 2.9, 0, 0, 0, 0, 1, 1, 0
2052, '1', 1, 1, 1, 14.243, 4.036, 0, 0, 0, 0, 1, 1, 0
2053, '1', 1, 1, 1, 16.707, 4.734, 0, 0, 0, 0, 1, 1, 0
2055, '1', 1, 1, 1, 28.455, 8.062, 0, 0, 0, 0, 1, 1, 0
2060, '1', 1, 1, 1, 2.176, 0.617, 0, 0, 0, 0, 1, 1, 0
2063, '1', 1, 1, 1, 37.628, 10.661, 0, 0, 0, 0, 1, 1, 0
2064, '1', 1, 1, 1, 5.762, 1.633, 0, 0, 0, 0, 1, 1, 0
2065, '1', 1, 1, 1, 44.937, 12.732, 0, 0, 0, 0, 1, 1, 0
2066, '1', 1, 1, 1, 4.079, 1.156, 0, 0, 0, 0, 1, 1, 0
2067, '1', 1, 1, 1, 30.948, 8.769, 0, 0, 0, 0, 1, 1, 0
2068, '1', 1, 1, 1, 3.303, 0.936, 0, 0, 0, 0, 1, 1, 0
2069, '1', 1, 1, 1, 12.573, 3.562, 0, 0, 0, 0, 1, 1, 0
2072, '1', 1, 1, 1, 5.565, 1.577, 0, 0, 0, 0, 1, 1, 0
2079, '1', 1, 1, 1, 2.569, 0.728, 0, 0, 0, 0, 1, 1, 0
2080, '1', 1, 1, 1, 9.71, 2.751, 0, 0, 0, 0, 1, 1, 0
2081, '1', 1, 1, 1, 2.56, 0.725, 0, 0, 0, 0, 1, 1, 0
2082, '1', 1, 1, 1, 33.852, 9.591, 0, 0, 0, 0, 1, 1, 0
2086, '1', 1, 1, 1, 1.258, 0.356, 0, 0, 0, 0, 1, 1, 0
2087, '1', 1, 1, 1, 4.528, 1.283, 0, 0, 0, 0, 1, 1, 0
2090, '1', 1, 1, 1, 1.39, 0.394, 0, 0, 0, 0, 1, 1, 0
2091, '1', 1, 1, 1, 9.775, 2.77, 0, 0, 0, 0, 1, 1, 0
2092, '1', 1, 1, 1, 13.825, 3.917, 0, 0, 0, 0, 1, 1, 0
2106, '1', 1, 1, 1, 8.26, 2.34, 0, 0, 0, 0, 1, 1, 0
2107, '1', 1, 1, 1, 42.523, 12.048, 0, 0, 0, 0, 1, 1, 0
2108, '1', 1, 1, 1, 1.23, 0.349, 0, 0, 0, 0, 1, 1, 0
2109, '1', 1, 1, 1, 19.389, 5.493, 0, 0, 0, 0, 1, 1, 0
2110, '1', 1, 1, 1, 4.925, 1.396, 0, 0, 0, 0, 1, 1, 0
2111, '1', 1, 1, 1, 8.001, 2.267, 0, 0, 0, 0, 1, 1, 0
2112, '1', 1, 1, 1, 2.605, 0.738, 0, 0, 0, 0, 1, 1, 0
2114, '1', 1, 1, 1, 40.587, 11.5, 0, 0, 0, 0, 1, 1, 0
2121, '1', 1, 1, 1, 1.338, 0.379, 0, 0, 0, 0, 1, 1, 0
2122, '1', 1, 1, 1, 3.855, 1.092, 0, 0, 0, 0, 1, 1, 0
2124, '1', 1, 1, 1, 12.206, 3.458, 0, 0, 0, 0, 1, 1, 0
2125, '1', 1, 1, 1, 2.326, 0.659, 0, 0, 0, 0, 1, 1, 0
2126, '1', 1, 1, 1, 8.163, 2.313, 0, 0, 0, 0, 1, 1, 0
2129, '1', 1, 1, 1, 3.804, 1.078, 0, 0, 0, 0, 1, 1, 0
2132, '1', 1, 1, 1, 6.847, 1.94, 0, 0, 0, 0, 1, 1, 0
2133, '1', 1, 1, 1, 3.257, 0.923, 0, 0, 0, 0, 1, 1, 0
3002, '1', 1, 1, 1, 65.295, 18.5, 0, 0, 0, 0, 1, 1, 0
3005, '1', 1, 1, 1, 4.247, 1.203, 0, 0, 0, 0, 1, 1, 0
3006, '1', 1, 1, 1, 4.251, 1.204, 0, 0, 0, 0, 1, 1, 0
3007, '1', 1, 1, 1, 8.657, 2.453, 0, 0, 0, 0, 1, 1, 0
3008, '1', 1, 1, 1, 11.46, 3.247, 0, 0, 0, 0, 1, 1, 0
3009, '1', 1, 1, 1, 7.255, 2.056, 0, 0, 0, 0, 1, 1, 0
3010, '1', 1, 1, 1, 2.702, 0.766, 0, 0, 0, 0, 1, 1, 0
3011, '1', 1, 1, 1, 15.7, 4.448, 0, 0, 0, 0, 1, 1, 0
3012, '1', 1, 1, 1, 0.326, 0.092, 0, 0, 0, 0, 1, 1, 0
3013, '1', 1, 1, 1, 37.35, 10.582, 0, 0, 0, 0, 1, 1, 0
3014, '1', 1, 1, 1, 12.729, 3.607, 0, 0, 0, 0, 1, 1, 0
3015, '1', 1, 1, 1, 3.103, 0.879, 0, 0, 0, 0, 1, 1, 0
3021, '1', 1, 1, 1, 1.123, 0.318, 0, 0, 0, 0, 1, 1, 0
3022, '1', 1, 1, 1, 14.227, 4.031, 0, 0, 0, 0, 1, 1, 0
3023, '1', 1, 1, 1, 6.021, 1.706, 0, 0, 0, 0, 1, 1, 0
3024, '1', 1, 1, 1, 5.861, 1.661, 0, 0, 0, 0, 1, 1, 0
3025, '1', 1, 1, 1, 7.911, 2.241, 0, 0, 0, 0, 1, 1, 0
3029, '1', 1, 1, 1, 2.815, 0.798, 0, 0, 0, 0, 1, 1, 0
3030, '1', 1, 1, 1, 75.05, 21.264, 0, 0, 0, 0, 1, 1, 0
3031, '1', 1, 1, 1, 8.524, 2.415, 0, 0, 0, 0, 1, 1, 0
3032, '1', 1, 1, 1, 42.156, 11.944, 0, 0, 0, 0, 1, 1, 0
3035, '1', 1, 1, 1, 2.005, 0.568, 0, 0, 0, 0, 1, 1, 0
3036, '1', 1, 1, 1, 3.357, 0.951, 0, 0, 0, 0, 1, 1, 0
3040, '1', 1, 1, 1, 8.451, 2.394, 0, 0, 0, 0, 1, 1, 0
3042, '1', 1, 1, 1, 5.065, 1.435, 0, 0, 0, 0, 1, 1, 0
3049, '1', 1, 1, 1, 6.123, 1.735, 0, 0, 0, 0, 1, 1, 0
3051, '1', 1, 1, 1, 84.058, 23.816, 0, 0, 0, 0, 1, 1, 0
3052, '1', 1, 1, 1, 4.672, 1.324, 0, 0, 0, 0, 1, 1, 0
3066, '1', 1, 1, 1, 12.748, 3.612, 0, 0, 0, 0, 1, 1, 0
3069, '1', 1, 1, 1, 2.206, 0.625, 0, 0, 0, 0, 1, 1, 0
3072, '1', 1, 1, 1, 3.463, 0.981, 0, 0, 0, 0, 1, 1, 0
3075, '1', 1, 1, 1, 7.048, 1.997, 0, 0, 0, 0, 1, 1, 0
3076, '1', 1, 1, 1, 6.245, 1.769, 0, 0, 0, 0, 1, 1, 0
3077, '1', 1, 1, 1, 39.72, 11.254, 0, 0, 0, 0, 1, 1, 0
3093, '1', 1, 1, 1, 2.919, 0.827, 0, 0, 0, 0, 1, 1, 0
3099, '1', 1, 1, 1, 6.988, 1.98, 0, 0, 0, 0, 1, 1, 0
3100, '1', 1, 1, 1, 4.933, 1.398, 0, 0, 0, 0, 1, 1, 0
3101, '1', 1, 1, 1, 5.457, 1.546, 0, 0, 0, 0, 1, 1, 0
3102, '1', 1, 1, 1, 43.539, 12.336, 0, 0, 0, 0, 1, 1, 0
3103, '1', 1, 1, 1, 22.748, 6.446, 0, 0, 0, 0, 1, 1, 0
3107, '1', 1, 1, 1, 8.602, 2.437, 0, 0, 0, 0, 1, 1, 0
3108, '1', 1, 1, 1, 13.609, 3.856, 0, 0, 0, 0, 1, 1, 0
3114, '1', 1, 1, 1, 56.876, 16.115, 0, 0, 0, 0, 1, 1, 0
3115, '1', 1, 1, 1, 5.54, 1.569, 0, 0, 0, 0, 1, 1, 0
3123, '1', 1, 1, 1, 38.223, 10.83, 0, 0, 0, 0, 1, 1, 0
3124, '1', 1, 1, 1, 37.339, 10.579, 0, 0, 0, 0, 1, 1, 0
3125, '1', 1, 1, 1, 52.797, 14.959, 0, 0, 0, 0, 1, 1, 0
3126, '1', 1, 1, 1, 5.761, 1.632, 0, 0, 0, 0, 1, 1, 0
3128, '1', 1, 1, 1, 1.632, 0.462, 0, 0, 0, 0, 1, 1, 0
3130, '1', 1, 1, 1, 53.315, 15.105, 0, 0, 0, 0, 1, 1, 0
3132, '1', 1, 1, 1, 5.533, 1.568, 0, 0, 0, 0, 1, 1, 0
3136, '1', 1, 1, 1, 27.166, 7.697, 0, 0, 0, 0, 1, 1, 0
3138, '1', 1, 1, 1, 6.333, 1.795, 0, 0, 0, 0, 1, 1, 0
3139, '1', 1, 1, 1, 8.63, 2.446, 0, 0, 0, 0, 1, 1, 0
3140, '1', 1, 1, 1, 0.128, 0.036, 0, 0, 0, 0, 1, 1, 0
3142, '1', 1, 1, 1, 4.09, 1.158, 0, 0, 0, 0, 1, 1, 0
3143, '1', 1, 1, 1, 3.329, 0.943, 0, 0, 0, 0, 1, 1, 0
3144, '1', 1, 1, 1, 3.214, 0.911, 0, 0, 0, 0, 1, 1, 0
3145, '1', 1, 1, 1, 1.701, 0.482, 0, 0, 0, 0, 1, 1, 0
3146, '1', 1, 1, 1, 6.963, 1.973, 0, 0, 0, 0, 1, 1, 0
3147, '1', 1, 1, 1, 20.109, 5.698, 0, 0, 0, 0, 1, 1, 0
4002, '1', 1, 1, 1, 0.618, 0.175, 0, 0, 0, 0, 1, 1, 0
4003, '1', 1, 1, 1, 78.078, 22.122, 0, 0, 0, 0, 1, 1, 0
4005, '1', 1, 1, 1, 100.679, 28.526, 0, 0, 0, 0, 1, 1, 0
4006, '1', 1, 1, 1, 1.689, 0.478, 0, 0, 0, 0, 1, 1, 0
4007, '1', 1, 1, 1, 112.651, 31.918, 0, 0, 0, 0, 1, 1, 0
4008, '1', 1, 1, 1, 19.93, 5.647, 0, 0, 0, 0, 1, 1, 0
4011, '1', 1, 1, 1, 9.845, 2.789, 0, 0, 0, 0, 1, 1, 0
4012, '1', 1, 1, 1, 8.428, 2.388, 0, 0, 0, 0, 1, 1, 0
4013, '1', 1, 1, 1, 56.645, 16.049, 0, 0, 0, 0, 1, 1, 0
4015, '1', 1, 1, 1, 98.022, 27.773, 0, 0, 0, 0, 1, 1, 0
4016, '1', 1, 1, 1, 3.831, 1.085, 0, 0, 0, 0, 1, 1, 0
4017, '1', 1, 1, 1, 54.935, 15.565, 0, 0, 0, 0, 1, 1, 0
4018, '1', 1, 1, 1, 4.378, 1.24, 0, 0, 0, 0, 1, 1, 0
4019, '1', 1, 1, 1, 83.313, 23.606, 0, 0, 0, 0, 1, 1, 0
4020, '1', 1, 1, 1, 72.264, 20.475, 0, 0, 0, 0, 1, 1, 0
4021, '1', 1, 1, 1, 19.61, 5.556, 0, 0, 0, 0, 1, 1, 0
4022, '1', 1, 1, 1, 3.413, 0.967, 0, 0, 0, 0, 1, 1, 0
4023, '1', 1, 1, 1, 3.106, 0.88, 0, 0, 0, 0, 1, 1, 0
4027, '1', 1, 1, 1, 39.942, 11.317, 0, 0, 0, 0, 1, 1, 0
4031, '1', 1, 1, 1, 1.686, 0.478, 0, 0, 0, 0, 1, 1, 0
4032, '1', 1, 1, 1, 56.056, 15.882, 0, 0, 0, 0, 1, 1, 0
4033, '1', 1, 1, 1, 77.438, 21.941, 0, 0, 0, 0, 1, 1, 0
4034, '1', 1, 1, 1, 23.088, 6.542, 0, 0, 0, 0, 1, 1, 0
4035, '1', 1, 1, 1, 48.555, 13.757, 0, 0, 0, 0, 1, 1, 0
4036, '1', 1, 1, 1, 21.511, 6.094, 0, 0, 0, 0, 1, 1, 0
4037, '1', 1, 1, 1, 17.617, 4.992, 0, 0, 0, 0, 1, 1, 0
4038, '1', 1, 1, 1, 51.097, 14.477, 0, 0, 0, 0, 1, 1, 0
4040, '1', 1, 1, 1, 138.416, 39.218, 0, 0, 0, 0, 1, 1, 0
4042, '1', 1, 1, 1, 131.985, 37.396, 0, 0, 0, 0, 1, 1, 0
4043, '1', 1, 1, 1, 1.518, 0.43, 0, 0, 0, 0, 1, 1, 0
4048, '1', 1, 1, 1, 8.038, 2.277, 0, 0, 0, 0, 1, 1, 0
...
0 / END OF LOAD DATA, BEGIN FIXED SHUNT DATA
0 / END OF FIXED SHUNT DATA, BEGIN GENERATOR DATA
1004, '1', 205.3, -30.38, 44.94, -30.38, 1.0205643, 0, 0, 0, 1.0, 0, 0, 1, 1, 1, 205.3, 0, 1, 1, 0, 1, 0, 1, 0, 1, 0, 1
1006, '1', 33.6, -4.94, 7.31, -4.94, 1.0052596, 0, 0, 0, 1.0, 0, 0, 1, 1, 1, 33.6, 0, 1, 1, 0, 1, 0, 1, 0, 1, 0, 1
1009, '1', 22.8, -11.88, 17.57, -11.88, 1.0099193, 0, 0, 0, 1.0, 0, 0, 1, 1, 1, 22.8, 0, 1, 1, 0, 1, 0, 1, 0, 1, 0, 1
1011, '1', 0, 0, 0, 0, 1.0506504, 0, 0, 0, 1.0, 0, 0, 1, 1, 1, 0, 0, 1, 1, 0, 1, 0, 1, 0, 1, 0, 1
1021, '1', 195.4, -28.73, 42.49, -28.73, 1, 0, 0, 0, 1.0, 0, 0, 1, 1, 1, 195.4, 0, 1, 1, 0, 1, 0, 1, 0, 1, 0, 1
1023, '1', 46, -25.92, 38.34, -25.92, 1.01, 0, 0, 0, 1.0, 0, 0, 1, 1, 1, 46, 0, 1, 1, 0, 1, 0, 1, 0, 1, 0, 1
1026, '1', 121.6, -17.88, 26.45, -17.88, 1.03, 0, 0, 0, 1.0, 0, 0, 1, 1, 1, 121.6, 0, 1, 1, 0, 1, 0, 1, 0, 1, 0, 1
1033, '1', 22.9, -40.03, 59.21, -40.03, 1.0155019, 0, 0, 0, 1.0, 0, 0, 1, 1, 1, 22.9, 0, 1, 1, 0, 1, 0, 1, 0, 1, 0, 1
1035, '1', 88.3, -12.96, 19.17, -12.96, 1, 0, 0, 0, 1.0, 0, 0, 1, 1, 1, 88.3, 0, 1, 1, 0, 1, 0, 1, 0, 1, 0, 1
1039, '1', 36, -21.24, 31.42, -21.24, 1, 0, 0, 0, 1.0, 0, 0, 1, 1, 1, 36, 0, 1, 1, 0, 1, 0, 1, 0, 1, 0, 1
1042, '1', 49.786, 25.96, 25.96, -17.55, 1.0042427, 0, 0, 0, 1.0, 0, 0, 1, 0, 1, 121.5, 0, 1, 1, 0, 1, 0, 1, 0, 1, 0, 1
1043, '1', 58.6, -8.47, 12.52, -8.47, 1.0202861, 0, 0, 0, 1.0, 0, 0, 1, 1, 1, 58.6, 0, 1, 1, 0, 1, 0, 1, 0, 1, 0, 1
1048, '1', 107.593, -9.675, 165.53, -36.1, 1.0099623, 0, 0, 0, 1.0, 0, 0, 1, 0, 1, 325.2, 97.56, 1, 1, 0, 1, 0, 1, 0, 1, 0, 1
1049, '1', 131.489, 0.351, 165.53, -36.1, 1.0099623, 0, 0, 0, 1.0, 0, 0, 1, 0, 1, 325.2, 97.56, 1, 1, 0, 1, 0, 1, 0, 1, 0, 1
1050, '1', 27.086756, -9.92, 45.5, -9.92, 1.0023328, 0, 0, 0, 1.0, 0, 0, 1, 1, 1, 89.4, 26.82, 1, 1, 0, 1, 0, 1, 0, 1, 0, 1
1051, '1', 27.086756, -9.92, 45.5, -9.92, 1, 0, 0, 0, 1.0, 0, 0, 1, 1, 1, 89.4, 26.82, 1, 1, 0, 1, 0, 1, 0, 1, 0, 1
1052, '1', 27.086756, -9.92, 45.5, -9.92, 1.0042669, 0, 0, 0, 1.0, 0, 0, 1, 1, 1, 89.4, 26.82, 1, 1, 0, 1, 0, 1, 0, 1, 0, 1
1053, '1', 55.138, -19.85, 91.01, -19.85, 1.0196171, 0, 0, 0, 1.0, 0, 0, 1, 0, 1, 178.8, 53.64, 1, 1, 0, 1, 0, 1, 0, 1, 0, 1
1057, '1', 118.687, 9.979, 25.56, -17.28, 1.015, 0, 0, 0, 1.0, 0, 0, 1, 0, 1, 119, 0, 1, 1, 0, 1, 0, 1, 0, 1, 0, 1
1059, '1', 0, 2.85, 2.85, -0.62, 1.0258058, 0, 0, 0, 1.0, 0, 0, 1, 0, 1, 5.6, 1.68, 1, 1, 0, 1, 0, 1, 0, 1, 0, 1
1060, '1', 0, 1.02, 1.02, -0.22, 1.0258058, 0, 0, 0, 1.0, 0, 0, 1, 0, 1, 2, 0.6, 1, 1, 0, 1, 0, 1, 0, 1, 0, 1
1062, '1', 1.496, 0, 0, 0, 1.0089356, 0, 0, 0, 1.0, 0, 0, 1, 0, 1, 1.5, 0.45, 1, 1, 0, 1, 0, 1, 0, 1, 0, 1
1063, '1', 69, 0, 0, 0, 1.0089356, 0, 0, 0, 1.0, 0, 0, 1, 0, 1, 230, 69, 1, 1, 0, 1, 0, 1, 0, 1, 0, 1
1066, '1', 136.9, -20.52, 30.35, -20.52, 1, 0, 0, 0, 1.0, 0, 0, 1, 1, 1, 136.9, 0, 1, 1, 0, 1, 0, 1, 0, 1, 0, 1
1070, '1', 152.1, -23.11, 34.19, -23.11, 1.04, 0, 0, 0, 1.0, 0, 0, 1, 1, 1, 152.1, 0, 1, 1, 0, 1, 0, 1, 0, 1, 0, 1
1072, '1', 58.213287, -21.33, 97.8, -21.33, 1.01, 0, 0, 0, 1.0, 0, 0, 1, 1, 1, 192.13, 57.64, 1, 1, 0, 1, 0, 1, 0, 1, 0, 1
1073, '1', 58.213287, -21.33, 97.8, -21.33, 1.01, 0, 0, 0, 1.0, 0, 0, 1, 1, 1, 192.13, 57.64, 1, 1, 0, 1, 0, 1, 0, 1, 0, 1
1074, '1', 58.213287, -21.33, 97.8, -21.33, 1.01, 0, 0, 0, 1.0, 0, 0, 1, 1, 1, 192.13, 57.64, 1, 1, 0, 1, 0, 1, 0, 1, 0, 1
1075, '1', 58.213287, -21.33, 97.8, -21.33, 1.01, 0, 0, 0, 1.0, 0, 0, 1, 1, 1, 192.13, 57.64, 1, 1, 0, 1, 0, 1, 0, 1, 0, 1
1076, '1', 95.278, 29.129, 97.8, -21.33, 1.0108812, 0, 0, 0, 1.0, 0, 0, 1, 0, 1, 192.13, 57.64, 1, 1, 0, 1, 0, 1, 0, 1, 0, 1
1077, '1', 118.881, 21.47, 97.8, -21.33, 1.0108812, 0, 0, 0, 1.0, 0, 0, 1, 0, 1, 192.13, 57.64, 1, 1, 0, 1, 0, 1, 0, 1, 0, 1
1078, '1', 28.934958, -10.6, 48.61, -10.6, 1.01, 0, 0, 0, 1.0, 0, 0, 1, 1, 1, 95.5, 28.65, 1, 1, 0, 1, 0, 1, 0, 1, 0, 1
1079, '1', 28.934958, -10.6, 48.61, -10.6, 1.0560899, 0, 0, 0, 1.0, 0, 0, 1, 1, 1, 95.5, 28.65, 1, 1, 0, 1, 0, 1, 0, 1, 0, 1
1080, '1', 28.934958, -10.6, 48.61, -10.6, 1.01, 0, 0, 0, 1.0, 0, 0, 1, 1, 1, 95.5, 28.65, 1, 1, 0, 1, 0, 1, 0, 1, 0, 1
1081, '1', 115.841, 37.388, 145.83, -31.8, 1.0213703, 0, 0, 0, 1.0, 0, 0, 1, 0, 1, 286.5, 85.95, 1, 1, 0, 1, 0, 1, 0, 1, 0, 1
1082, '1', 121.4, -21.6, 31.95, -21.6, 1.0199633, 0, 0, 0, 1.0, 0, 0, 1, 1, 1, 121.4, 0, 1, 1, 0, 1, 0, 1, 0, 1, 0, 1
1084, '1', 113, -16.63, 24.6, -16.63, 1.0238562, 0, 0, 0, 1.0, 0, 0, 1, 1, 1, 113, 0, 1, 1, 0, 1, 0, 1, 0, 1, 0, 1
1088, '1', 70.4, -10.8, 15.97, -10.8, 1, 0, 0, 0, 1.0, 0, 0, 1, 1, 1, 70.4, 0, 1, 1, 0, 1, 0, 1, 0, 1, 0, 1
1090, '1', 134.1, -21.96, 32.48, -21.96, 1.02, 0, 0, 0, 1.0, 0, 0, 1, 1, 1, 134.1, 0, 1, 1, 0, 1, 0, 1, 0, 1, 0, 1
1090, '2', 31.7, -5.18, 7.67, -5.18, 1.02, 0, 0, 0, 1.0, 0, 0, 1, 1, 1, 31.7, 0, 1, 1, 0, 1, 0, 1, 0, 1, 0, 1
2004, '1', 117.54, -7.096, 199.43, -43.49, 1.0300722, 0, 0, 0, 1.0, 0, 0, 1, 0, 1, 391.8, 117.54, 1, 1, 0, 1, 0, 1, 0, 1, 0, 1
2005, '1', 117.54, -6.517, 199.43, -43.49, 1.0300722, 0, 0, 0, 1.0, 0, 0, 1, 0, 1, 391.8, 117.54, 1, 1, 0, 1, 0, 1, 0, 1, 0, 1
2006, '1', 129.628, -6.765, 199.43, -43.49, 1.0300722, 0, 0, 0, 1.0, 0, 0, 1, 0, 1, 391.8, 117.54, 1, 1, 0, 1, 0, 1, 0, 1, 0, 1
2013, '1', 200.3, -28.89, 42.73, -28.89, 1.0336199, 0, 0, 0, 1.0, 0, 0, 1, 1, 1, 200.3, 0, 1, 1, 0, 1, 0, 1, 0, 1, 0, 1
2019, '1', 217.431, 0.589, 46.43, -31.39, 1.0259398, 0, 0, 0, 1.0, 0, 0, 1, 0, 1, 218, 0, 1, 1, 0, 1, 0, 1, 0, 1, 0, 1
2023, '1', 25.248644, -9.25, 42.42, -9.25, 1.027821, 0, 0, 0, 1.0, 0, 0, 1, 1, 1, 83.33, 25, 1, 1, 0, 1, 0, 1, 0, 1, 0, 1
2024, '1', 50.497318, -18.5, 84.83, -18.5, 1.0265252, 0, 0, 0, 1.0, 0, 0, 1, 1, 1, 166.67, 50, 1, 1, 0, 1, 0, 1, 0, 1, 0, 1
2042, '1', 79.6, -11.46, 16.95, -11.46, 1.0217206, 0, 0, 0, 1.0, 0, 0, 1, 1, 1, 79.6, 0, 1, 1, 0, 1, 0, 1, 0, 1, 0, 1
2056, '1', 1.85, -0.73, 2.8, -0.73, 1.0265888, 0, 0, 0, 1.0, 0, 0, 1, 0, 1, 6, 1.8, 1, 1, 0, 1, 0, 1, 0, 1, 0, 1
2057, '1', 218.14837, -87.84, 335.52, -87.84, 1.0272653, 0, 0, 0, 1.0, 0, 0, 1, 1, 1, 720, 216, 1, 1, 0, 1, 0, 1, 0, 1, 0, 1
2059, '1', 78.2, -11.52, 17.04, -11.52, 1.0226087, 0, 0, 0, 1.0, 0, 0, 1, 1, 1, 78.2, 0, 1, 1, 0, 1, 0, 1, 0, 1, 0, 1
2062, '1', 116.3, -19.5, 28.84, -19.5, 1.02, 0, 0, 0, 1.0, 0, 0, 1, 1, 1, 116.3, 0, 1, 1, 0, 1, 0, 1, 0, 1, 0, 1
2071, '1', 146.7, -21.6, 31.95, -21.6, 1.0190136, 0, 0, 0, 1.0, 0, 0, 1, 1, 1, 146.7, 0, 1, 1, 0, 1, 0, 1, 0, 1, 0, 1
2076, '1', 25.8, -4.32, 6.39, -4.32, 1.0358313, 0, 0, 0, 1.0, 0, 0, 1, 1, 1, 25.8, 0, 1, 1, 0, 1, 0, 1, 0, 1, 0, 1
2078, '1', 63.1, -16.2, 23.96, -16.2, 1.02, 0, 0, 0, 1.0, 0, 0, 1, 1, 1, 63.1, 0, 1, 1, 0, 1, 0, 1, 0, 1, 0, 1
2083, '1', 6.059677, -2.22, 10.18, -2.22, 1.0271832, 0, 0, 0, 1.0, 0, 0, 1, 1, 1, 20, 6, 1, 1, 0, 1, 0, 1, 0, 1, 0, 1
2084, '1', 18.301, -2.22, 10.18, -2.22, 1.0233555, 0, 0, 0, 1.0, 0, 0, 1, 0, 1, 20, 6, 1, 1, 0, 1, 0, 1, 0, 1, 0, 1
2085, '1', 0, 20.36, 20.36, -4.44, 1.0233555, 0, 0, 0, 1.0, 0, 0, 1, 0, 1, 40, 12, 1, 1, 0, 1, 0, 1, 0, 1, 0, 1
2089, '1', 56.6, -9.73, 14.4, -9.73, 1.0187249, 0, 0, 0, 1.0, 0, 0, 1, 1, 1, 56.6, 0, 1, 1, 0, 1, 0, 1, 0, 1, 0, 1
2094, '1', 4.271, -1.44, 2.13, -1.44, 1.0280001, 0, 0, 0, 1.0, 0, 0, 1, 0, 1, 10, 0, 1, 1, 0, 1, 0, 1, 0, 1, 0, 1
2095, '1', 0.666, -11.45, 16.93, -11.45, 1.0280001, 0, 0, 0, 1.0, 0, 0, 1, 0, 1, 79.5, 0, 1, 1, 0, 1, 0, 1, 0, 1, 0, 1
2099, '1', 9.9, -1.44, 2.13, -1.44, 1.0007532, 0, 0, 0, 1.0, 0, 0, 1, 1, 1, 9.9, 0, 1, 1, 0, 1, 0, 1, 0, 1, 0, 1
2100, '1', 147.9, -21.6, 31.95, -21.6, 1.0125581, 0, 0, 0, 1.0, 0, 0, 1, 1, 1, 147.9, 0, 1, 1, 0, 1, 0, 1, 0, 1, 0, 1
2103, '1', 80.32, -29.72, 136.28, -29.72, 1.0290923, 0, 0, 0, 1.0, 0, 0, 1, 0, 1, 267.73, 80.32, 1, 1, 0, 1, 0, 1, 0, 1, 0, 1
2104, '1', 88.58, -29.72, 136.28, -29.72, 1.0290923, 0, 0, 0, 1.0, 0, 0, 1, 0, 1, 267.73, 80.32, 1, 1, 0, 1, 0, 1, 0, 1, 0, 1
2105, '1', 80.41, -29.72, 136.28, -29.72, 1.0290923, 0, 0, 0, 1.0, 0, 0, 1, 0, 1, 267.73, 80.32, 1, 1, 0, 1, 0, 1, 0, 1, 0, 1
2115, '1', 55.961177, -20.5, 94.02, -20.5, 1.0231833, 0, 0, 0, 1.0, 0, 0, 1, 1, 1, 184.72, 55.41, 1, 1, 0, 1, 0, 1, 0, 1, 0, 1
2116, '1', 55.961177, -20.5, 94.02, -20.5, 1.0267686, 0, 0, 0, 1.0, 0, 0, 1, 1, 1, 184.72, 55.41, 1, 1, 0, 1, 0, 1, 0, 1, 0, 1
2117, '1', 55.961177, -20.5, 94.02, -20.5, 1.0216991, 0, 0, 0, 1.0, 0, 0, 1, 1, 1, 184.72, 55.41, 1, 1, 0, 1, 0, 1, 0, 1, 0, 1
2118, '1', 55.961177, -20.5, 94.02, -20.5, 1.0207793, 0, 0, 0, 1.0, 0, 0, 1, 1, 1, 184.72, 55.41, 1, 1, 0, 1, 0, 1, 0, 1, 0, 1
2119, '1', 55.961177, -20.5, 94.02, -20.5, 1.0259062, 0, 0, 0, 1.0, 0, 0, 1, 1, 1, 184.72, 55.41, 1, 1, 0, 1, 0, 1, 0, 1, 0, 1
2120, '1', 55.961177, -20.5, 94.02, -20.5, 1.0212282, 0, 0, 0, 1.0, 0, 0, 1, 1, 1, 184.72, 55.41, 1, 1, 0, 1, 0, 1, 0, 1, 0, 1
2123, '1', 181.6, -26.16, 38.7, -26.16, 1.0336267, 0, 0, 0, 1.0, 0, 0, 1, 1, 1, 181.6, 0, 1, 1, 0, 1, 0, 1, 0, 1, 0, 1
2127, '1', 287.5, 28.347196, 61.47, -41.56, 1.0427117, 0, 0, 0, 1.0, 0, 0, 1, 1, 1, 287.5, 0, 1, 1, 0, 1, 0, 1, 0, 1, 0, 1
3004, '1', 36.5, -5.4, 7.99, -5.4, 1.0133716, 0, 0, 0, 1.0, 0, 0, 1, 1, 1, 36.5, 0, 1, 1, 0, 1, 0, 1, 0, 1, 0, 1
3017, '1', 99.4, -24.41, 36.1, -24.41, 1.01, 0, 0, 0, 1.0, 0, 0, 1, 1, 1, 99.4, 0, 1, 1, 0, 1, 0, 1, 0, 1, 0, 1
3020, '1', 131.3, -21.6, 31.95, -21.6, 1.03, 0, 0, 0, 1.0, 0, 0, 1, 1, 1, 131.3, 0, 1, 1, 0, 1, 0, 1, 0, 1, 0, 1
3028, '1', 189.1, -28.8, 42.6, -28.8, 1.04, 0, 0, 0, 1.0, 0, 0, 1, 1, 1, 189.1, 0, 1, 1, 0, 1, 0, 1, 0, 1, 0, 1
3034, '1', 80.7, -18.79, 27.8, -18.79, 1.03, 0, 0, 0, 1.0, 0, 0, 1, 1, 1, 80.7, 0, 1, 1, 0, 1, 0, 1, 0, 1, 0, 1
3039, '1', 117.6, -30.1, 44.52, -30.1, 1.04, 0, 0, 0, 1.0, 0, 0, 1, 1, 1, 117.6, 0, 1, 1, 0, 1, 0, 1, 0, 1, 0, 1
3043, '1', 0, 0.66, 0.66, -0.14, 1.0358045, 0, 0, 0, 1.0, 0, 0, 1, 0, 1, 1.3, 0.39, 1, 1, 0, 1, 0, 1, 0, 1, 0, 1
3044, '1', 0, 25.432, 45.5, -9.92, 1.0358045, 0, 0, 0, 1.0, 0, 0, 1, 0, 1, 89.4, 26.82, 1, 1, 0, 1, 0, 1, 0, 1, 0, 1
3045, '1', 134.1, 51.998, 227.52, -49.62, 1.0358045, 0, 0, 0, 1.0, 0, 0, 1, 0, 1, 447, 134.1, 1, 1, 0, 1, 0, 1, 0, 1, 0, 1
3048, '1', 197.6, -34.7, 51.33, -34.7, 1.0517555, 0, 0, 0, 1.0, 0, 0, 1, 1, 1, 197.6, 0, 1, 1, 0, 1, 0, 1, 0, 1, 0, 1
3055, '1', 105.2, -35.3, 52.22, -35.3, 1.04, 0, 0, 0, 1.0, 0, 0, 1, 1, 1, 105.2, 0, 1, 1, 0, 1, 0, 1, 0, 1, 0, 1
3056, '1', 105.2, -35.3, 52.22, -35.3, 1.04, 0, 0, 0, 1.0, 0, 0, 1, 1, 1, 105.2, 0, 1, 1, 0, 1, 0, 1, 0, 1, 0, 1
3057, '1', 105.2, -35.3, 52.22, -35.3, 1.04, 0, 0, 0, 1.0, 0, 0, 1, 1, 1, 105.2, 0, 1, 1, 0, 1, 0, 1, 0, 1, 0, 1
3060, '1', 139.1, -23.85, 35.28, -23.85, 1.04, 0, 0, 0, 1.0, 0, 0, 1, 1, 1, 139.1, 0, 1, 1, 0, 1, 0, 1, 0, 1, 0, 1
3061, '1', 3.8, -23.85, 35.28, -23.85, 1.04, 0, 0, 0, 1.0, 0, 0, 1, 1, 1, 3.8, 0, 1, 1, 0, 1, 0, 1, 0, 1, 0, 1
3062, '1', 139.1, -23.85, 35.28, -23.85, 1.04, 0, 0, 0, 1.0, 0, 0, 1, 1, 1, 139.1, 0, 1, 1, 0, 1, 0, 1, 0, 1, 0, 1
3063, '1', 139.1, -23.85, 35.28, -23.85, 1.04, 0, 0, 0, 1.0, 0, 0, 1, 1, 1, 139.1, 0, 1, 1, 0, 1, 0, 1, 0, 1, 0, 1
3065, '1', 71.9, -11.59, 17.15, -11.59, 1, 0, 0, 0, 1.0, 0, 0, 1, 1, 1, 71.9, 0, 1, 1, 0, 1, 0, 1, 0, 1, 0, 1
3068, '1', 93.3, -21.6, 31.95, -21.6, 1.04, 0, 0, 0, 1.0, 0, 0, 1, 1, 1, 93.3, 0, 1, 1, 0, 1, 0, 1, 0, 1, 0, 1
3071, '1', 41.7, -24.51, 36.25, -24.51, 1.004866, 0, 0, 0, 1.0, 0, 0, 1, 1, 1, 41.7, 0, 1, 1, 0, 1, 0, 1, 0, 1, 0, 1
3074, '1', 1.1, -14.37, 21.26, -14.37, 1, 0, 0, 0, 1.0, 0, 0, 1, 1, 1, 1.1, 0, 1, 1, 0, 1, 0, 1, 0, 1, 0, 1
3081, '1', 233.4, -35.86, 53.04, -35.86, 1.04, 0, 0, 0, 1.0, 0, 0, 1, 1, 1, 233.4, 0, 1, 1, 0, 1, 0, 1, 0, 1, 0, 1
3084, '1', 225.3, -33.48, 49.52, -33.48, 1.0014917, 0, 0, 0, 1.0, 0, 0, 1, 1, 1, 225.3, 0, 1, 1, 0, 1, 0, 1, 0, 1, 0, 1
3086, '1', 33, -10.8, 15.97, -10.8, 1, 0, 0, 0, 1.0, 0, 0, 1, 1, 1, 33, 0, 1, 1, 0, 1, 0, 1, 0, 1, 0, 1
3087, '1', 6.517, 0.024, 15.97, -10.8, 1.01245, 0, 0, 0, 1.0, 0, 0, 1, 0, 1, 33, 0, 1, 1, 0, 1, 0, 1, 0, 1, 0, 1
3092, '1', 174.6, -28.8, 42.6, -28.8, 1.04, 0, 0, 0, 1.0, 0, 0, 1, 1, 1, 174.6, 0, 1, 1, 0, 1, 0, 1, 0, 1, 0, 1
3095, '1', 115.7, -17.37, 25.69, -17.37, 1.04, 0, 0, 0, 1.0, 0, 0, 1, 1, 1, 115.7, 0, 1, 1, 0, 1, 0, 1, 0, 1, 0, 1
3098, '1', 150.8, -23.04, 34.08, -23.04, 1.04, 0, 0, 0, 1.0, 0, 0, 1, 1, 1, 150.8, 0, 1, 1, 0, 1, 0, 1, 0, 1, 0, 1
3105, '1', 0, -0.74, 17.071, -0.74, 1.0206719, 0, 0, 0, 1.0, 0, 0, 1, 1, 1, 0, 0, 1, 1, 0, 1, 0, 1, 0, 1, 0, 1
3106, '1', 0, -2.69, 62.477, -2.69, 1.0164629, 0, 0, 0, 1.0, 0, 0, 1, 1, 1, 0, 0, 1, 1, 0, 1, 0, 1, 0, 1, 0, 1
3110, '1', 79.4, -12.1, 17.89, -12.1, 1.04, 0, 0, 0, 1.0, 0, 0, 1, 1, 1, 79.4, 0, 1, 1, 0, 1, 0, 1, 0, 1, 0, 1
3112, '1', 72.1, -10.77, 15.93, -10.77, 1, 0, 0, 0, 1.0, 0, 0, 1, 1, 1, 72.1, 0, 1, 1, 0, 1, 0, 1, 0, 1, 0, 1
3113, '1', 56.3, -10.77, 15.93, -10.77, 1, 0, 0, 0, 1.0, 0, 0, 1, 1, 1, 56.3, 0, 1, 1, 0, 1, 0, 1, 0, 1, 0, 1
3117, '1', 55.4, -9.07, 13.42, -9.07, 1.0040007, 0, 0, 0, 1.0, 0, 0, 1, 1, 1, 55.4, 0, 1, 1, 0, 1, 0, 1, 0, 1, 0, 1
3118, '1', 110.9, -17.28, 25.56, -17.28, 1.0014867, 0, 0, 0, 1.0, 0, 0, 1, 1, 1, 110.9, 0, 1, 1, 0, 1, 0, 1, 0, 1, 0, 1
3120, '1', 0, 0, 0, 0, 1.0114807, 0, 0, 0, 1.0, 0, 0, 1, 1, 1, 0, 0, 1, 1, 0, 1, 0, 1, 0, 1, 0, 1
3122, '1', 166.3, -28.37, 41.96, -28.37, 1, 0, 0, 0, 1.0, 0, 0, 1, 1, 1, 166.3, 0, 1, 1, 0, 1, 0, 1, 0, 1, 0, 1
3127, '1', 123.7, -19.44, 28.76, -19.44, 1.0177493, 0, 0, 0, 1.0, 0, 0, 1, 1, 1, 123.7, 0, 1, 1, 0, 1, 0, 1, 0, 1, 0, 1
3129, '1', 73.8, -18.22, 26.94, -18.22, 1.0157552, 0, 0, 0, 1.0, 0, 0, 1, 1, 1, 73.8, 0, 1, 1, 0, 1, 0, 1, 0, 1, 0, 1
3131, '1', 79.5, -16.42, 24.28, -16.42, 1.02, 0, 0, 0, 1.0, 0, 0, 1, 1, 1, 79.5, 0, 1, 1, 0, 1, 0, 1, 0, 1, 0, 1
3133, '1', 15.407, 5.257, 26.11, -5.69, 1.0245743, 0, 0, 0, 1.0, 0, 0, 1, 0, 1, 51.3, 15.39, 1, 1, 0, 1, 0, 1, 0, 1, 0, 1
3133, '2', 15.407, 5.257, 26.11, -5.69, 1.0245743, 0, 0, 0, 1.0, 0, 0, 1, 0, 1, 51.3, 15.39, 1, 1, 0, 1, 0, 1, 0, 1, 0, 1
3133, '3', 15.407, 5.257, 26.11, -5.69, 1.0245743, 0, 0, 0, 1.0, 0, 0, 1, 0, 1, 51.3, 15.39, 1, 1, 0, 1, 0, 1, 0, 1, 0, 1
3137, '1', 77.2, -14.57, 21.56, -14.57, 1.03, 0, 0, 0, 1.0, 0, 0, 1, 1, 1, 77.2, 0, 1, 1, 0, 1, 0, 1, 0, 1, 0, 1
3141, '1', 87.8, -13.18, 19.49, -13.18, 1.0188455, 0, 0, 0, 1.0, 0, 0, 1, 1, 1, 87.8, 0, 1, 1, 0, 1, 0, 1, 0, 1, 0, 1
4010, '1', 19.8, -29.03, 42.94, -29.03, 1.03, 0, 0, 0, 1.0, 0, 0, 1, 1, 1, 19.8, 0, 1, 1, 0, 1, 0, 1, 0, 1, 0, 1
4026, '1', 124.22338, -50.02, 191.06, -50.02, 1.03, 0, 0, 0, 1.0, 0, 0, 1, 1, 1, 410, 123, 1, 1, 0, 1, 0, 1, 0, 1, 0, 1
4030, '1', 188.57715, -75.93, 290.04, -75.93, 1.0194382, 0, 0, 0, 1.0, 0, 0, 1, 1, 1, 622.4, 186.72, 1, 1, 0, 1, 0, 1, 0, 1, 0, 1
4045, '1', 0, -1.54, 35.862, -1.54, 1.02, 0, 0, 0, 1.0, 0, 0, 1, 1, 1, 0, 0, 1, 1, 0, 1, 0, 1, 0, 1, 0, 1
4046, '1', 0, -0.47, 10.936, -0.47, 1.02, 0, 0, 0, 1.0, 0, 0, 1, 1, 1, 0, 0, 1, 1, 0, 1, 0, 1, 0, 1, 0, 1
4047, '1', 0, -3.23, 75.102, -3.23, 1.02, 0, 0, 0, 1.0, 0, 0, 1, 1, 1, 0, 0, 1, 1, 0, 1, 0, 1, 0, 1, 0, 1
4050, '1', 41.2, -28.8, 42.6, -28.8, 1, 0, 0, 0, 1.0, 0, 0, 1, 1, 1, 41.2, 0, 1, 1, 0, 1, 0, 1, 0, 1, 0, 1
4052, '1', 13.391886, -4.91, 22.5, -4.91, 1.04, 0, 0, 0, 1.0, 0, 0, 1, 1, 1, 44.2, 13.26, 1, 1, 0, 1, 0, 1, 0, 1, 0, 1
4058, '1', 43.629675, -15.98, 73.3, -15.98, 1.03, 0, 0, 0, 1.0, 0, 0, 1, 1, 1, 144, 43.2, 1, 1, 0, 1, 0, 1, 0, 1, 0, 1
4059, '1', 43.629675, -15.98, 73.3, -15.98, 1.03, 0, 0, 0, 1.0, 0, 0, 1, 1, 1, 144, 43.2, 1, 1, 0, 1, 0, 1, 0, 1, 0, 1
4060, '1', 43.629675, -15.98, 73.3, -15.98, 1.03, 0, 0, 0, 1.0, 0, 0, 1, 1, 1, 144, 43.2, 1, 1, 0, 1, 0, 1, 0, 1, 0, 1
4061, '1', 52.214207, -19.13, 87.72, -19.13, 1.03, 0, 0, 0, 1.0, 0, 0, 1, 1, 1, 172.33, 51.7, 1, 1, 0, 1, 0, 1, 0, 1, 0, 1
4062, '1', 52.214207, -19.13, 87.72, -19.13, 1.03, 0, 0, 0, 1.0, 0, 0, 1, 1, 1, 172.33, 51.7, 1, 1, 0, 1, 0, 1, 0, 1, 0, 1
4063, '1', 52.214207, -19.13, 87.72, -19.13, 1.03, 0, 0, 0, 1.0, 0, 0, 1, 1, 1, 172.33, 51.7, 1, 1, 0, 1, 0, 1, 0, 1, 0, 1
4065, '1', 14.240241, -5.22, 23.92, -5.22, 1.02, 0, 0, 0, 1.0, 0, 0, 1, 1, 1, 47, 14.1, 1, 1, 0, 1, 0, 1, 0, 1, 0, 1
4075, '1', 54.378, 20.44, 89.75, -19.57, 1.0157754, 0, 0, 0, 1.0, 0, 0, 1, 0, 1, 176.33, 52.9, 1, 1, 0, 1, 0, 1, 0, 1, 0, 1
4076, '1', 53.426142, -19.57, 89.75, -19.57, 1.03, 0, 0, 0, 1.0, 0, 0, 1, 1, 1, 176.33, 52.9, 1, 1, 0, 1, 0, 1, 0, 1, 0, 1
4077, '1', 53.426142, -19.57, 89.75, -19.57, 1.03, 0, 0, 0, 1.0, 0, 0, 1, 1, 1, 176.33, 52.9, 1, 1, 0, 1, 0, 1, 0, 1, 0, 1
4082, '1', 73.746269, -27.02, 123.89, -27.02, 1.04, 0, 0, 0, 1.0, 0, 0, 1, 1, 1, 243.4, 73.02, 1, 1, 0, 1, 0, 1, 0, 1, 0, 1
4083, '1', 73.746269, -27.02, 123.89, -27.02, 1.04, 0, 0, 0, 1.0, 0, 0, 1, 1, 1, 243.4, 73.02, 1, 1, 0, 1, 0, 1, 0, 1, 0, 1
4084, '1', 73.746269, -27.02, 123.89, -27.02, 1.04, 0, 0, 0, 1.0, 0, 0, 1, 1, 1, 243.4, 73.02, 1, 1, 0, 1, 0, 1, 0, 1, 0, 1
4085, '1', 106.65032, -39.07, 179.17, -39.07, 1.04, 0, 0, 0, 1.0, 0, 0, 1, 1, 1, 352, 105.6, 1, 1, 0, 1, 0, 1, 0, 1, 0, 1
4090, '1', 1.396, 0.166, 0.65, -0.17, 1.009201, 0, 0, 0, 1.0, 0, 0, 1, 0, 1, 1.4, 0.42, 1, 1, 0, 1, 0, 1, 0, 1, 0, 1
4091, '1', 7.1201205, -2.87, 10.95, -2.87, 1.01, 0, 0, 0, 1.0, 0, 0, 1, 1, 1, 23.5, 7.05, 1, 1, 0, 1, 0, 1, 0, 1, 0, 1
4092, '1', 7.58, 0.744, 3.54, -0.93, 1.009201, 0, 0, 0, 1.0, 0, 0, 1, 0, 1, 7.6, 2.28, 1, 1, 0, 1, 0, 1, 0, 1, 0, 1
4093, '1', 8.4835478, -3.42, 13.05, -3.42, 1.01, 0, 0, 0, 1.0, 0, 0, 1, 1, 1, 28, 8.4, 1, 1, 0, 1, 0, 1, 0, 1, 0, 1
4094, '1', 8.4835478, -3.42, 13.05, -3.42, 1.01, 0, 0, 0, 1.0, 0, 0, 1, 1, 1, 28, 8.4, 1, 1, 0, 1, 0, 1, 0, 1, 0, 1
4095, '1', 8.4835478, -3.42, 13.05, -3.42, 1.01, 0, 0, 0, 1.0, 0, 0, 1, 1, 1, 28, 8.4, 1, 1, 0, 1, 0, 1, 0, 1, 0, 1
4096, '1', 27.927, 0.333, 13.05, -3.42, 1.009201, 0, 0, 0, 1.0, 0, 0, 1, 0, 1, 28, 8.4, 1, 1, 0, 1, 0, 1, 0, 1, 0, 1
4097, '1', 8.4835478, -3.42, 13.05, -3.42, 1.01, 0, 0, 0, 1.0, 0, 0, 1, 1, 1, 28, 8.4, 1, 1, 0, 1, 0, 1, 0, 1, 0, 1
4098, '1', 27.927, 0.077, 13.05, -3.42, 1.009201, 0, 0, 0, 1.0, 0, 0, 1, 0, 1, 28, 8.4, 1, 1, 0, 1, 0, 1, 0, 1, 0, 1
4105, '1', 97, -25.92, 38.34, -25.92, 1.01, 0, 0, 0, 1.0, 0, 0, 1, 1, 1, 97, 0, 1, 1, 0, 1, 0, 1, 0, 1, 0, 1
4115, '1', 39.933272, -14.63, 67.09, -14.63, 1.04, 0, 0, 0, 1.0, 0, 0, 1, 1, 1, 131.8, 39.54, 1, 1, 0, 1, 0, 1, 0, 1, 0, 1
4116, '1', 39.933272, -14.63, 67.09, -14.63, 1.04, 0, 0, 0, 1.0, 0, 0, 1, 1, 1, 131.8, 39.54, 1, 1, 0, 1, 0, 1, 0, 1, 0, 1
4133, '1', 10.091, -3.73, 17.1, -3.73, 1.019566, 0, 0, 0, 1.0, 0, 0, 1, 0, 1, 33.6, 10.08, 1, 1, 0, 1, 0, 1, 0, 1, 0, 1
4134, '1', 10.180257, -3.73, 17.1, -3.73, 1.0142352, 0, 0, 0, 1.0, 0, 0, 1, 1, 1, 33.6, 10.08, 1, 1, 0, 1, 0, 1, 0, 1, 0, 1
4135, '1', 10.180257, -3.73, 17.1, -3.73, 1.0146294, 0, 0, 0, 1.0, 0, 0, 1, 1, 1, 33.6, 10.08, 1, 1, 0, 1, 0, 1, 0, 1, 0, 1
4136, '1', 10.180257, -3.73, 17.1, -3.73, 1.0129339, 0, 0, 0, 1.0, 0, 0, 1, 1, 1, 33.6, 10.08, 1, 1, 0, 1, 0, 1, 0, 1, 0, 1
4137, '1', 0, -7.46, 34.2, -7.46, 1.019566, 0, 0, 0, 1.0, 0, 0, 1, 0, 1, 67.2, 20.16, 1, 1, 0, 1, 0, 1, 0, 1, 0, 1
4138, '1', 0, -7.33, 33.59, -7.33, 1.019566, 0, 0, 0, 1.0, 0, 0, 1, 0, 1, 66, 19.8, 1, 1, 0, 1, 0, 1, 0, 1, 0, 1
4142, '1', 48, -27.07, 40.04, -27.07, 1.04, 0, 0, 0, 1.0, 0, 0, 1, 1, 1, 48, 0, 1, 1, 0, 1, 0, 1, 0, 1, 0, 1
4153, '1', 86.7, -40.78, 60.32, -40.78, 1.0379989, 0, 0, 0, 1.0, 0, 0, 1, 1, 1, 86.7, 0, 1, 1, 0, 1, 0, 1, 0, 1, 0, 1
4160, '1', 59.920116, -21.95, 100.66, -21.95, 1.03, 0, 0, 0, 1.0, 0, 0, 1, 1, 1, 197.77, 59.33, 1, 1, 0, 1, 0, 1, 0, 1, 0, 1
4161, '1', 59.920116, -21.95, 100.66, -21.95, 1.03, 0, 0, 0, 1.0, 0, 0, 1, 1, 1, 197.77, 59.33, 1, 1, 0, 1, 0, 1, 0, 1, 0, 1
4162, '1', 59.920116, -21.95, 100.66, -21.95, 1.03, 0, 0, 0, 1.0, 0, 0, 1, 1, 1, 197.77, 59.33, 1, 1, 0, 1, 0, 1, 0, 1, 0, 1
4163, '1', 8.977, 4.58, 4.58, -1, 1.0212822, 0, 0, 0, 1.0, 0, 0, 1, 0, 1, 9, 2.7, 1, 1, 0, 1, 0, 1, 0, 1, 0, 1
4166, '1', 61.5, -28.94, 42.81, -28.94, 1.0100208, 0, 0, 0, 1.0, 0, 0, 1, 1, 1, 61.5, 0, 1, 1, 0, 1, 0, 1, 0, 1, 0, 1
4177, '1', 144.5, -21.6, 31.95, -21.6, 1.04, 0, 0, 0, 1.0, 0, 0, 1, 1, 1, 144.5, 0, 1, 1, 0, 1, 0, 1, 0, 1, 0, 1
4181, '1', 81.6, -28.81, 42.62, -28.81, 1.0294832, 0, 0, 0, 1.0, 0, 0, 1, 1, 1, 81.6, 0, 1, 1, 0, 1, 0, 1, 0, 1, 0, 1
4183, '1', 203, -29.23, 43.24, -29.23, 1.023335, 0, 0, 0, 1.0, 0, 0, 1, 1, 1, 203, 0, 1, 1, 0, 1, 0, 1, 0, 1, 0, 1
4192, '1', 22.723789, -8.33, 38.17, -8.33, 1.02, 0, 0, 0, 1.0, 0, 0, 1, 1, 1, 75, 22.5, 1, 1, 0, 1, 0, 1, 0, 1, 0, 1
4192, '10', 55.678342, -20.4, 93.54, -20.4, 1.02, 0, 0, 0, 1.0, 0, 0, 1, 1, 1, 183.77, 55.13, 1, 1, 0, 1, 0, 1, 0, 1, 0, 1
4192, '2', 23.937, 7.045, 12.22, -2.66, 1.02, 0, 0, 0, 1.0, 0, 0, 1, 0, 1, 24, 7.2, 1, 1, 0, 1, 0, 1, 0, 1, 0, 1
4192, '3', 18.482015, -6.77, 31.05, -6.77, 1.02, 0, 0, 0, 1.0, 0, 0, 1, 1, 1, 61, 18.3, 1, 1, 0, 1, 0, 1, 0, 1, 0, 1
4192, '4', 3.151032, -1.15, 5.29, -1.15, 1.02, 0, 0, 0, 1.0, 0, 0, 1, 1, 1, 10.4, 3.12, 1, 1, 0, 1, 0, 1, 0, 1, 0, 1
4192, '5', 80.896688, -29.64, 135.9, -29.64, 1.02, 0, 0, 0, 1.0, 0, 0, 1, 1, 1, 267, 80.1, 1, 1, 0, 1, 0, 1, 0, 1, 0, 1
4192, '6', 80.896688, -29.64, 135.9, -29.64, 1.02, 0, 0, 0, 1.0, 0, 0, 1, 1, 1, 267, 80.1, 1, 1, 0, 1, 0, 1, 0, 1, 0, 1
4192, '7', 80.896688, -29.64, 135.9, -29.64, 1.02, 0, 0, 0, 1.0, 0, 0, 1, 1, 1, 267, 80.1, 1, 1, 0, 1, 0, 1, 0, 1, 0, 1
4192, '8', 55.678342, -20.4, 93.54, -20.4, 1.02, 0, 0, 0, 1.0, 0, 0, 1, 1, 1, 183.77, 55.13, 1, 1, 0, 1, 0, 1, 0, 1, 0, 1
4192, '9', 55.678342, -20.4, 93.54, -20.4, 1.02, 0, 0, 0, 1.0, 0, 0, 1, 1, 1, 183.77, 55.13, 1, 1, 0, 1, 0, 1, 0, 1, 0, 1
4194, '1', 55.5, -29.03, 42.94, -29.03, 1.0096269, 0, 0, 0, 1.0, 0, 0, 1, 1, 1, 55.5, 0, 1, 1, 0, 1, 0, 1, 0, 1, 0, 1
4195, '1', 90.7, -13.25, 19.6, -13.25, 1.0320503, 0, 0, 0, 1.0, 0, 0, 1, 1, 1, 90.7, 0, 1, 1, 0, 1, 0, 1, 0, 1, 0, 1
5020, '1', 22.7, -17.28, 25.56, -17.28, 1.0376938, 0, 0, 0, 1.0, 0, 0, 1, 1, 1, 22.7, 0, 1, 1, 0, 1, 0, 1, 0, 1, 0, 1
5023, '1', 0, 2.44, 2.44, -0.53, 1.0261794, 0, 0, 0, 1.0, 0, 0, 1, 0, 1, 4.8, 1.44, 1, 1, 0, 1, 0, 1, 0, 1, 0, 1
5035, '1', 1.261, -0.47, 2.14, -0.47, 1.0227599, 0, 0, 0, 1.0, 0, 0, 1, 0, 1, 4.2, 1.26, 1, 1, 0, 1, 0, 1, 0, 1, 0, 1
5036, '1', 0, 3.26, 3.26, -0.71, 1.0227599, 0, 0, 0, 1.0, 0, 0, 1, 0, 1, 6.4, 1.92, 1, 1, 0, 1, 0, 1, 0, 1, 0, 1
5037, '1', 93.460428, -34.24, 157.01, -34.24, 1.02, 0, 0, 0, 1.0, 0, 0, 1, 1, 1, 308.47, 92.54, 1, 1, 0, 1, 0, 1, 0, 1, 0, 1
5038, '1', 93.460428, -34.24, 157.01, -34.24, 1.02, 0, 0, 0, 1.0, 0, 0, 1, 1, 1, 308.47, 92.54, 1, 1, 0, 1, 0, 1, 0, 1, 0, 1
5039, '1', 93.460428, -34.24, 157.01, -34.24, 1.0210764, 0, 0, 0, 1.0, 0, 0, 1, 1, 1, 308.47, 92.54, 1, 1, 0, 1, 0, 1, 0, 1, 0, 1
5040, '1', 93.460428, -34.24, 157.01, -34.24, 1.02, 0, 0, 0, 1.0, 0, 0, 1, 1, 1, 308.47, 92.54, 1, 1, 0, 1, 0, 1, 0, 1, 0, 1
5041, '1', 93.460428, -34.24, 157.01, -34.24, 1.02, 0, 0, 0, 1.0, 0, 0, 1, 1, 1, 308.47, 92.54, 1, 1, 0, 1, 0, 1, 0, 1, 0, 1
5042, '1', 93.460428, -34.24, 157.01, -34.24, 1.02, 0, 0, 0, 1.0, 0, 0, 1, 1, 1, 308.47, 92.54, 1, 1, 0, 1, 0, 1, 0, 1, 0, 1
5051, '1', 25.662732, -9.4, 43.11, -9.4, 1.0290038, 0, 0, 0, 1.0, 0, 0, 1, 1, 1, 84.7, 25.41, 1, 1, 0, 1, 0, 1, 0, 1, 0, 1
5057, '1', 97.859, -35.23, 161.53, -35.23, 1.0363349, 0, 0, 0, 1.0, 0, 0, 1, 0, 1, 317.35, 95.2, 1, 1, 0, 1, 0, 1, 0, 1, 0, 1
5058, '1', 96.146925, -35.23, 161.53, -35.23, 1.0335833, 0, 0, 0, 1.0, 0, 0, 1, 1, 1, 317.35, 95.2, 1, 1, 0, 1, 0, 1, 0, 1, 0, 1
5065, '1', 3.2116288, -1.18, 5.4, -1.18, 1.0273576, 0, 0, 0, 1.0, 0, 0, 1, 1, 1, 10.6, 3.18, 1, 1, 0, 1, 0, 1, 0, 1, 0, 1
5066, '1', 0, 0.92, 0.92, -0.2, 1.0264281, 0, 0, 0, 1.0, 0, 0, 1, 0, 1, 1.8, 0.54, 1, 1, 0, 1, 0, 1, 0, 1, 0, 1
5067, '1', 132.78773, -48.65, 223.08, -48.65, 1.03, 0, 0, 0, 1.0, 0, 0, 1, 1, 1, 438.27, 131.48, 1, 1, 0, 1, 0, 1, 0, 1, 0, 1
5068, '1', 132.78773, -48.65, 223.08, -48.65, 1.03, 0, 0, 0, 1.0, 0, 0, 1, 1, 1, 438.27, 131.48, 1, 1, 0, 1, 0, 1, 0, 1, 0, 1
5069, '1', 132.78773, -48.65, 223.08, -48.65, 1.03, 0, 0, 0, 1.0, 0, 0, 1, 1, 1, 438.27, 131.48, 1, 1, 0, 1, 0, 1, 0, 1, 0, 1
5089, '1', 123.791, -2.05, 47.569, -2.05, 1.0302109, 0, 0, 0, 1.0, 0, 0, 1, 0, 1, 123.9, 0, 1, 1, 0, 1, 0, 1, 0, 1, 0, 1
...
0 / END OF GENERATOR DATA, BEGIN BRANCH DATA
1001, 1064, '1', 0.00524, 0.0358, 0.00609, 221, 221, 221, 0, 0, 0, 0, 1, 1, 0, 1, 1, 0, 1, 0, 1, 0, 1
1001, 1064, '2', 0.00524, 0.0358, 0.00609, 221, 221, 221, 0, 0, 0, 0, 1, 1, 0, 1, 1, 0, 1, 0, 1, 0, 1
1001, 1071, '1', 0.00435, 0.02808, 0.00536, 221, 221, 221, 0, 0, 0, 0, 1, 1, 0, 1, 1, 0, 1, 0, 1, 0, 1
1001, 1071, '2', 0.00435, 0.02808, 0.00536, 221, 221, 221, 0, 0, 0, 0, 0, 1, 0, 1, 1, 0, 1, 0, 1, 0, 1
1002, 1007, '1', 0.07776, 0.46693, 0.06336, 98, 98, 98, 0, 0, 0, 0, 1, 1, 0, 1, 1, 0, 1, 0, 1, 0, 1
1010, 1002, '1', 0.05552, 0.1357, 0.01777, 98, 98, 98, 0, 0, 0, 0, 1, 1, 0, 1, 1, 0, 1, 0, 1, 0, 1
1022, 1003, '1', 0.00485, 0.02012, 0.00341, 221, 221, 221, 0, 0, 0, 0, 1, 1, 0, 1, 1, 0, 1, 0, 1, 0, 1
1055, 1003, '1', 0.01574, 0.03782, 0.00513, 98, 98, 98, 0, 0, 0, 0, 1, 1, 0, 1, 1, 0, 1, 0, 1, 0, 1
1004, 3133, '1', 0.0042, 0.03, 0.055, 523, 523, 523, 0, 0, 0, 0, 1, 1, 0, 1, 1, 0, 1, 0, 1, 0, 1
1025, 1005, '1', 0.01842, 0.0821, 0.01204, 149, 149, 149, 0, 0, 0, 0, 1, 1, 0, 1, 1, 0, 1, 0, 1, 0, 1
1005, 1061, '1', 0.00599, 0.02484, 0.00422, 221, 221, 221, 0, 0, 0, 0, 1, 1, 0, 1, 1, 0, 1, 0, 1, 0, 1
1067, 1005, '1', 0.01711, 0.04181, 0.00548, 98, 98, 98, 0, 0, 0, 0, 1, 1, 0, 1, 1, 0, 1, 0, 1, 0, 1
1007, 1015, '1', 0.06224, 0.37375, 0.05072, 98, 98, 98, 0, 0, 0, 0, 1, 1, 0, 1, 1, 0, 1, 0, 1, 0, 1
1031, 1007, '1', 0.04803, 0.27434, 0.04123, 98, 98, 98, 0, 0, 0, 0, 1, 1, 0, 1, 1, 0, 1, 0, 1, 0, 1
1008, 1032, '1', 0.04501, 0.11002, 0.01441, 98, 98, 98, 0, 0, 0, 0, 1, 1, 0, 1, 1, 0, 1, 0, 1, 0, 1
1008, 1069, '1', 0.0083, 0.03628, 0.00553, 149, 149, 149, 0, 0, 0, 0, 1, 1, 0, 1, 1, 0, 1, 0, 1, 0, 1
1010, 1015, '1', 0.04703, 0.28243, 0.03833, 98, 98, 98, 0, 0, 0, 0, 1, 1, 0, 1, 1, 0, 1, 0, 1, 0, 1
1010, 1030, '1', 0.0616, 0.3699, 0.0502, 98, 98, 98, 0, 0, 0, 0, 1, 1, 0, 1, 1, 0, 1, 0, 1, 0, 1
1012, 1087, '1', 0.04934, 0.20469, 0.03473, 149, 149, 149, 0, 0, 0, 0, 1, 1, 0, 1, 1, 0, 1, 0, 1, 0, 1
3051, 1012, '1', 0.0571, 0.24977, 0.03804, 149, 149, 149, 0, 0, 0, 0, 1, 1, 0, 1, 1, 0, 1, 0, 1, 0, 1
1013, 1031, '1', 0.04509, 0.27078, 0.03675, 98, 98, 98, 0, 0, 0, 0, 1, 1, 0, 1, 1, 0, 1, 0, 1, 0, 1
1047, 1013, '1', 0.00947, 0.06117, 0.01167, 221, 221, 221, 0, 0, 0, 0, 1, 1, 0, 1, 1, 0, 1, 0, 1, 0, 1
1086, 1013, '1', 0.079, 0.19311, 0.02529, 98, 98, 98, 0, 0, 0, 0, 1, 1, 0, 1, 1, 0, 1, 0, 1, 0, 1
1014, 1047, '1', 0.03566, 0.14794, 0.0251, 149, 149, 149, 0, 0, 0, 0, 1, 1, 0, 1, 1, 0, 1, 0, 1, 0, 1
1014, 1083, '1', 0.04105, 0.18293, 0.02682, 149, 149, 149, 0, 0, 0, 0, 1, 1, 0, 1, 1, 0, 1, 0, 1, 0, 1
1016, 1034, '1', 0.01828, 0.10976, 0.01489, 98, 98, 98, 0, 0, 0, 0, 1, 1, 0, 1, 1, 0, 1, 0, 1, 0, 1
1068, 1016, '1', 0.02773, 0.15837, 0.0238, 98, 98, 98, 0, 0, 0, 0, 1, 1, 0, 1, 1, 0, 1, 0, 1, 0, 1
1018, 1017, '1', 0.03227, 0.07887, 0.01033, 98, 98, 98, 0, 0, 0, 0, 1, 1, 0, 1, 1, 0, 1, 0, 1, 0, 1
1017, 1029, '1', 0.03244, 0.14188, 0.02161, 149, 149, 149, 0, 0, 0, 0, 1, 1, 0, 1, 1, 0, 1, 0, 1, 0, 1
1037, 1017, '1', 0.00752, 0.03352, 0.00491, 221, 221, 221, 0, 0, 0, 0, 1, 1, 0, 1, 1, 0, 1, 0, 1, 0, 1
1047, 1017, '1', 0.036, 0.156, 0.024, 150, 150, 150, 0, 0, 0, 0, 1, 1, 0, 1, 1, 0, 1, 0, 1, 0, 1
1024, 1018, '1', 0.01094, 0.06572, 0.00892, 98, 98, 98, 0, 0, 0, 0, 1, 1, 0, 1, 1, 0, 1, 0, 1, 0, 1
1019, 1040, '1', 0.04978, 0.20651, 0.03504, 149, 149, 149, 0, 0, 0, 0, 1, 1, 0, 1, 1, 0, 1, 0, 1, 0, 1
1019, 1045, '1', 0.01522, 0.0372, 0.00487, 221, 221, 221, 0, 0, 0, 0, 1, 1, 0, 1, 1, 0, 1, 0, 1, 0, 1
1019, 1071, '1', 0.0044, 0.028, 0.0054, 225, 225, 225, 0, 0, 0, 0, 1, 1, 0, 1, 1, 0, 1, 0, 1, 0, 1
1071, 1019, '2', 0.0044, 0.028, 0.0054, 225, 225, 225, 0, 0, 0, 0, 1, 1, 0, 1, 1, 0, 1, 0, 1, 0, 1
1019, 1084, '1', 0.03, 0.16, 0.025, 220, 220, 220, 0, 0, 0, 0, 1, 1, 0, 1, 1, 0, 1, 0, 1, 0, 1
1025, 1020, '1', 0.00828, 0.03434, 0.00583, 149, 149, 149, 0, 0, 0, 0, 1, 1, 0, 1, 1, 0, 1, 0, 1, 0, 1
1084, 1020, '1', 0.01056, 0.06337, 0.0086, 221, 221, 221, 0, 0, 0, 0, 1, 1, 0, 1, 1, 0, 1, 0, 1, 0, 1
1020, 3059, '1', 0.0189, 0.06, 0.006, 300, 300, 300, 0, 0, 0, 0, 1, 1, 0, 1, 1, 0, 1, 0, 1, 0, 1
1020, 3130, '1', 0.00996, 0.06938, 0.01134, 221, 221, 221, 0, 0, 0, 0, 1, 1, 0, 1, 1, 0, 1, 0, 1, 0, 1
1022, 1028, '1', 0.01433, 0.09253, 0.01765, 221, 221, 221, 0, 0, 0, 0, 1, 1, 0, 1, 1, 0, 1, 0, 1, 0, 1
1022, 1028, '2', 0.01433, 0.09253, 0.01765, 221, 221, 221, 0, 0, 0, 0, 1, 1, 0, 1, 1, 0, 1, 0, 1, 0, 1
1024, 1090, '1', 0.01414, 0.06303, 0.00924, 149, 149, 149, 0, 0, 0, 0, 1, 1, 0, 1, 1, 0, 1, 0, 1, 0, 1
1027, 1045, '1', 0.02505, 0.10957, 0.01669, 221, 221, 221, 0, 0, 0, 0, 1, 1, 0, 1, 1, 0, 1, 0, 1, 0, 1
1056, 1027, '1', 0.03121, 0.0763, 0.00999, 250, 250, 250, 0, 0, 0, 0, 1, 1, 0, 1, 1, 0, 1, 0, 1, 0, 1
1028, 3109, '1', 0.00428, 0.01875, 0.00286, 250, 250, 250, 0, 0, 0, 0, 1, 1, 0, 1, 1, 0, 1, 0, 1, 0, 1
1029, 1056, '1', 0.02054, 0.11733, 0.01763, 221, 221, 221, 0, 0, 0, 0, 1, 1, 0, 1, 1, 0, 1, 0, 1, 0, 1
1030, 1038, '1', 0.07404, 0.42285, 0.06354, 98, 98, 98, 0, 0, 0, 0, 1, 1, 0, 1, 1, 0, 1, 0, 1, 0, 1
1083, 1030, '1', 0.06537, 0.37334, 0.0561, 98, 98, 98, 0, 0, 0, 0, 1, 1, 0, 1, 1, 0, 1, 0, 1, 0, 1
1032, 1036, '1', 0.01956, 0.11746, 0.01594, 98, 98, 98, 0, 0, 0, 0, 1, 1, 0, 1, 1, 0, 1, 0, 1, 0, 1
1038, 1032, '1', 0.045, 0.11, 0.015, 155, 155, 155, 0, 0, 0, 0, 1, 1, 0, 1, 1, 0, 1, 0, 1, 0, 1
1033, 1081, '1', 0.003, 0.031, 0.059, 548, 548, 548, 0, 0, 0, 0, 1, 1, 0, 1, 1, 0, 1, 0, 1, 0, 1
1033, 3050, '1', 0.0139, 0.136, 0.262, 647, 647, 647, 0, 0, 0, 0, 1, 1, 0, 1, 1, 0, 1, 0, 1, 0, 1
1067, 1034, '1', 0.00795, 0.04771, 0.00647, 98, 98, 98, 0, 0, 0, 0, 1, 1, 0, 1, 1, 0, 1, 0, 1, 0, 1
1088, 1036, '1', 0.02065, 0.11793, 0.01772, 98, 98, 98, 0, 0, 0, 0, 1, 1, 0, 1, 1, 0, 1, 0, 1, 0, 1
1037, 1071, '1', 0.00669, 0.04319, 0.00824, 300, 300, 300, 0, 0, 0, 0, 1, 1, 0, 1, 1, 0, 1, 0, 1, 0, 1
1082, 1038, '1', 0.01115, 0.04969, 0.00729, 149, 149, 149, 0, 0, 0, 0, 1, 1, 0, 1, 1, 0, 1, 0, 1, 0, 1
1083, 1038, '1', 0.01, 0.05, 0.007, 221, 221, 221, 0, 0, 0, 0, 1, 1, 0, 1, 1, 0, 1, 0, 1, 0, 1
1040, 1090, '1', 0.02991, 0.13329, 0.01955, 149, 149, 149, 0, 0, 0, 0, 1, 1, 0, 1, 1, 0, 1, 0, 1, 0, 1
1065, 1041, '1', 0.00386, 0.02203, 0.00331, 98, 98, 98, 0, 0, 0, 0, 1, 1, 0, 1, 1, 0, 1, 0, 1, 0, 1
1041, 1067, '1', 0.00393, 0.01722, 0.00262, 149, 149, 149, 0, 0, 0, 0, 1, 1, 0, 1, 1, 0, 1, 0, 1, 0, 1
1044, 3019, '1', 0.03857, 0.17192, 0.02521, 149, 149, 149, 0, 0, 0, 0, 1, 1, 0, 1, 1, 0, 1, 0, 1, 0, 1
3130, 1044, '1', 0.02731, 0.19029, 0.03111, 221, 221, 221, 0, 0, 0, 0, 1, 1, 0, 1, 1, 0, 1, 0, 1, 0, 1
1045, 1064, '1', 0.00545, 0.03794, 0.0062, 221, 221, 221, 0, 0, 0, 0, 1, 1, 0, 1, 1, 0, 1, 0, 1, 0, 1
1087, 1046, '1', 0.03262, 0.14269, 0.02173, 149, 149, 149, 0, 0, 0, 0, 1, 1, 0, 1, 1, 0, 1, 0, 1, 0, 1
1046, 3009, '1', 0.05654, 0.23454, 0.0398, 149, 149, 149, 0, 0, 0, 0, 1, 1, 0, 1, 1, 0, 1, 0, 1, 0, 1
1047, 1085, '1', 0.00947, 0.06117, 0.01167, 221, 221, 221, 0, 0, 0, 0, 1, 1, 0, 1, 1, 0, 1, 0, 1, 0, 1
1053, 1081, '1', 0.003, 0.03, 0.06, 548, 548, 548, 0, 0, 0, 0, 1, 1, 0, 1, 1, 0, 1, 0, 1, 0, 1
1054, 1056, '1', 0.02202, 0.09633, 0.01467, 149, 149, 149, 0, 0, 0, 0, 1, 1, 0, 1, 1, 0, 1, 0, 1, 0, 1
1089, 1054, '1', 0.08737, 0.21357, 0.02796, 98, 98, 98, 0, 0, 0, 0, 1, 1, 0, 1, 1, 0, 1, 0, 1, 0, 1
1055, 1089, '1', 0.04982, 0.12179, 0.01595, 98, 98, 98, 0, 0, 0, 0, 1, 1, 0, 1, 1, 0, 1, 0, 1, 0, 1
1056, 1061, '1', 0.02267, 0.12946, 0.01945, 150, 150, 150, 0, 0, 0, 0, 0, 1, 0, 1, 1, 0, 1, 0, 1, 0, 1
1056, 1065, '1', 0.02269, 0.12962, 0.01948, 250, 250, 250, 0, 0, 0, 0, 1, 1, 0, 1, 1, 0, 1, 0, 1, 0, 1
1069, 1058, '1', 0.0074, 0.05155, 0.00843, 221, 221, 221, 0, 0, 0, 0, 1, 1, 0, 1, 1, 0, 1, 0, 1, 0, 1
1069, 1058, '2', 0.0074, 0.05155, 0.00843, 221, 221, 221, 0, 0, 0, 0, 1, 1, 0, 1, 1, 0, 1, 0, 1, 0, 1
1058, 1087, '1', 0.01573, 0.10956, 0.01791, 221, 221, 221, 0, 0, 0, 0, 1, 1, 0, 1, 1, 0, 1, 0, 1, 0, 1
1058, 1087, '2', 0.01573, 0.10956, 0.01791, 221, 221, 221, 0, 0, 0, 0, 1, 1, 0, 1, 1, 0, 1, 0, 1, 0, 1
1061, 3042, '1', 0.054, 0.18, 0.028, 221, 221, 221, 0, 0, 0, 0, 1, 1, 0, 1, 1, 0, 1, 0, 1, 0, 1
1088, 1068, '1', 0.02962, 0.16921, 0.02543, 98, 98, 98, 0, 0, 0, 0, 1, 1, 0, 1, 1, 0, 1, 0, 1, 0, 1
1082, 1069, '1', 0.02137, 0.0952, 0.01396, 149, 149, 149, 0, 0, 0, 0, 1, 1, 0, 1, 1, 0, 1, 0, 1, 0, 1
3048, 1079, '1', 0.0013, 0.015, 1.02, 2300, 2300, 2300, 0, 0, 0, 0, 1, 1, 0, 1, 1, 0, 1, 0, 1, 0, 1
3048, 1079, '2', 0.0013, 0.015, 1.02, 2300, 2300, 2300, 0, 0, 0, 0, 1, 1, 0, 1, 1, 0, 1, 0, 1, 0, 1
1081, 3058, '1', 0.0091, 0.089, 0.171, 548, 548, 548, 0, 0, 0, 0, 1, 1, 0, 1, 1, 0, 1, 0, 1, 0, 1
1084, 3130, '1', 0.02049, 0.09131, 0.01339, 221, 221, 221, 0, 0, 0, 0, 1, 1, 0, 1, 1, 0, 1, 0, 1, 0, 1
1085, 1086, '1', 0.03392, 0.14838, 0.0226, 149, 149, 149, 0, 0, 0, 0, 1, 1, 0, 1, 1, 0, 1, 0, 1, 0, 1
1090, 1085, '1', 0.02018, 0.13786, 0.02346, 221, 221, 221, 0, 0, 0, 0, 1, 1, 0, 1, 1, 0, 1, 0, 1, 0, 1
2029, 1091, '1', 0.0389, 0.17144, 0.0798, 187, 187, 187, 0, 0, 0, 0, 1, 1, 0, 1, 1, 0, 1, 0, 1, 0, 1
1091, 2048, '1', 0.02193, 0.09667, 0.045, 187, 187, 187, 0, 0, 0, 0, 1, 1, 0, 1, 1, 0, 1, 0, 1, 0, 1
2098, 1091, '1', 0.00554, 0.02443, 0.01137, 187, 187, 187, 0, 0, 0, 0, 1, 1, 0, 1, 1, 0, 1, 0, 1, 0, 1
2022, 2001, '1', 0.00839, 0.03697, 0.01721, 187, 187, 187, 0, 0, 0, 0, 1, 1, 0, 1, 1, 0, 1, 0, 1, 0, 1
2027, 2001, '1', 0.00955, 0.04062, 0.02032, 187, 187, 187, 0, 0, 0, 0, 1, 1, 0, 1, 1, 0, 1, 0, 1, 0, 1
2021, 2002, '1', 0.00097, 0.01175, 0.78032, 2295, 2295, 2295, 0, 0, 0, 0, 1, 1, 0, 1, 1, 0, 1, 0, 1, 0, 1
2002, 2101, '1', 0.00031, 0.0037, 0.24573, 2020, 2020, 2020, 0, 0, 0, 0, 1, 1, 0, 1, 1, 0, 1, 0, 1, 0, 1
2038, 2003, '1', 0.00353, 0.02067, 0.01032, 251, 251, 251, 0, 0, 0, 0, 1, 1, 0, 1, 1, 0, 1, 0, 1, 0, 1
2003, 2047, '1', 0.0013, 0.0099, 0.0052, 310, 310, 310, 0, 0, 0, 0, 1, 1, 0, 1, 1, 0, 1, 0, 1, 0, 1
2007, 2114, '1', 0.00888, 0.05207, 0.026, 251, 251, 251, 0, 0, 0, 0, 1, 1, 0, 1, 1, 0, 1, 0, 1, 0, 1
2007, 2122, '1', 0.00861, 0.03661, 0.01831, 187, 187, 187, 0, 0, 0, 0, 1, 1, 0, 1, 1, 0, 1, 0, 1, 0, 1
2014, 2008, '1', 0.02253, 0.09931, 0.04623, 187, 187, 187, 0, 0, 0, 0, 1, 1, 0, 1, 1, 0, 1, 0, 1, 0, 1
2008, 2052, '1', 0.01877, 0.08271, 0.0385, 187, 187, 187, 0, 0, 0, 0, 1, 1, 0, 1, 1, 0, 1, 0, 1, 0, 1
2009, 2049, '1', 0.01224, 0.07176, 0.03583, 251, 251, 251, 0, 0, 0, 0, 1, 1, 0, 1, 1, 0, 1, 0, 1, 0, 1
2009, 2082, '1', 0.00735, 0.03126, 0.01563, 187, 187, 187, 0, 0, 0, 0, 1, 1, 0, 1, 1, 0, 1, 0, 1, 0, 1
2109, 2009, '1', 0.00725, 0.03084, 0.01542, 250, 250, 250, 0, 0, 0, 0, 1, 1, 0, 1, 1, 0, 1, 0, 1, 0, 1
2061, 2010, '1', 0.02439, 0.10748, 0.05003, 187, 187, 187, 0, 0, 0, 0, 1, 1, 0, 1, 1, 0, 1, 0, 1, 0, 1
2010, 2079, '1', 0.02061, 0.09083, 0.04228, 187, 187, 187, 0, 0, 0, 0, 1, 1, 0, 1, 1, 0, 1, 0, 1, 0, 1
2010, 2091, '1', 0.02461, 0.10467, 0.05235, 187, 187, 187, 0, 0, 0, 0, 1, 1, 0, 1, 1, 0, 1, 0, 1, 0, 1
2127, 2011, '1', 0.00108, 0.01307, 0.86827, 2020, 2020, 2020, 0, 0, 0, 0, 1, 1, 0, 1, 1, 0, 1, 0, 1, 0, 1
2012, 2041, '1', 0.01245, 0.05297, 0.02649, 187, 187, 187, 0, 0, 0, 0, 1, 1, 0, 1, 1, 0, 1, 0, 1, 0, 1
2012, 2052, '1', 0.02008, 0.08851, 0.0412, 187, 187, 187, 0, 0, 0, 0, 1, 1, 0, 1, 1, 0, 1, 0, 1, 0, 1
2093, 2012, '1', 0.01029, 0.04536, 0.02111, 187, 187, 187, 0, 0, 0, 0, 1, 1, 0, 1, 1, 0, 1, 0, 1, 0, 1
...